* NGSPICE file created from analog_mux_ready.ext - technology: sky130A

.subckt analog_mux_ready out en31_b in_31 en30_b in_30 en29_b in_29 en28_b in_28 en27_b
+ in_27 en26_b in_26 en25_b in_25 en24_b in_24 en23_b in_23 en22_b in_22 en21_b in_21
+ en20_b in_20 en19_b in_19 en18_b in_18 en17_b in_17 en16_b in_16 en15_b in_15 en14_b
+ in_14 en13_b in_13 en12_b in_12 en11_b in_11 en10_b in_10 en9_b in_9 en8_b in_8
+ en7_b in_7 en6_b in_6 en5_b in_5 en4_b in_4 en3_b in_3 en2_b in_2 en1_b in_1 en0_b
+ in_0 en_b en VPWR VGND
X0 a_301_6438# en27_b a_2454_6442# VPWR sky130_fd_pr__pfet_01v8 ad=4.8824e+12p pd=3.71e+07u as=4.8824e+12p ps=3.71e+07u w=1.36e+06u l=150000u
X1 a_301_18021# en18_b a_2454_18025# VPWR sky130_fd_pr__pfet_01v8 ad=4.8824e+12p pd=3.71e+07u as=4.8824e+12p ps=3.71e+07u w=1.36e+06u l=150000u
X2 a_301_1290# en31_b a_2454_1294# VPWR sky130_fd_pr__pfet_01v8 ad=4.8824e+12p pd=3.71e+07u as=4.8824e+12p ps=3.71e+07u w=1.36e+06u l=150000u
X3 out a_2450_12789# a_2454_12877# VGND sky130_fd_pr__nfet_01v8 ad=3.22816e+13p pd=3.2384e+08u as=2.0118e+12p ps=2.02e+07u w=520000u l=150000u
X4 a_301_5151# en_b in_28 VPWR sky130_fd_pr__pfet_01v8 ad=4.8824e+12p pd=3.71e+07u as=2.244e+12p ps=1.69e+07u w=1.36e+06u l=150000u
X5 a_2454_11590# a_2450_11502# out VGND sky130_fd_pr__nfet_01v8 ad=2.0118e+12p pd=2.02e+07u as=0p ps=0u w=520000u l=150000u
X6 VGND en14_b a_2450_23085# VGND sky130_fd_pr__nfet_01v8 ad=1.0048e+13p pd=1.088e+08u as=1.69e+11p ps=1.82e+06u w=650000u l=150000u
X7 a_2454_5155# a_2450_5067# a_301_5151# VGND sky130_fd_pr__nfet_01v8 ad=2.0118e+12p pd=2.02e+07u as=1.8668e+12p ps=1.862e+07u w=520000u l=150000u
X8 a_301_16734# a_2450_16650# a_2454_16738# VGND sky130_fd_pr__nfet_01v8 ad=1.8668e+12p pd=1.862e+07u as=2.0118e+12p ps=2.02e+07u w=520000u l=150000u
X9 out a_2450_10215# a_2454_10303# VGND sky130_fd_pr__nfet_01v8 ad=0p pd=0u as=2.0118e+12p ps=2.02e+07u w=520000u l=150000u
X10 a_301_24456# a_2450_24372# a_2454_24460# VGND sky130_fd_pr__nfet_01v8 ad=1.8668e+12p pd=1.862e+07u as=2.0118e+12p ps=2.02e+07u w=520000u l=150000u
X11 out a_2450_33381# a_2454_33469# VGND sky130_fd_pr__nfet_01v8 ad=0p pd=0u as=2.0118e+12p ps=2.02e+07u w=520000u l=150000u
X12 a_2454_18025# a_2450_17937# out VGND sky130_fd_pr__nfet_01v8 ad=2.0118e+12p pd=2.02e+07u as=0p ps=0u w=520000u l=150000u
X13 a_2454_15451# en20_b out VPWR sky130_fd_pr__pfet_01v8 ad=4.8824e+12p pd=3.71e+07u as=8.44288e+13p ps=6.464e+08u w=1.36e+06u l=150000u
X14 out a_2450_28233# a_2454_28321# VGND sky130_fd_pr__nfet_01v8 ad=0p pd=0u as=2.0118e+12p ps=2.02e+07u w=520000u l=150000u
X15 out a_2450_41103# a_2454_41191# VGND sky130_fd_pr__nfet_01v8 ad=0p pd=0u as=2.0118e+12p ps=2.02e+07u w=520000u l=150000u
X16 in_27 en a_301_6438# VGND sky130_fd_pr__nfet_01v8 ad=8.58e+11p pd=8.5e+06u as=1.8668e+12p ps=1.862e+07u w=520000u l=150000u
X17 a_2454_19312# a_2450_19224# out VGND sky130_fd_pr__nfet_01v8 ad=2.0118e+12p pd=2.02e+07u as=0p ps=0u w=520000u l=150000u
X18 a_2454_32182# a_2450_32094# out VGND sky130_fd_pr__nfet_01v8 ad=2.0118e+12p pd=2.02e+07u as=0p ps=0u w=520000u l=150000u
X19 in_14 en a_301_23169# VGND sky130_fd_pr__nfet_01v8 ad=8.58e+11p pd=8.5e+06u as=1.8668e+12p ps=1.862e+07u w=520000u l=150000u
X20 a_301_33465# en in_6 VGND sky130_fd_pr__nfet_01v8 ad=1.8668e+12p pd=1.862e+07u as=8.58e+11p ps=8.5e+06u w=520000u l=150000u
X21 in_18 en a_301_18021# VGND sky130_fd_pr__nfet_01v8 ad=8.58e+11p pd=8.5e+06u as=1.8668e+12p ps=1.862e+07u w=520000u l=150000u
X22 a_301_18021# en18_b a_2454_18025# VPWR sky130_fd_pr__pfet_01v8 ad=0p pd=0u as=0p ps=0u w=1.36e+06u l=150000u
X23 a_2454_7729# en26_b a_301_7725# VPWR sky130_fd_pr__pfet_01v8 ad=4.8824e+12p pd=3.71e+07u as=4.8824e+12p ps=3.71e+07u w=1.36e+06u l=150000u
X24 a_301_9012# en_b in_25 VPWR sky130_fd_pr__pfet_01v8 ad=4.8824e+12p pd=3.71e+07u as=2.244e+12p ps=1.69e+07u w=1.36e+06u l=150000u
X25 out en11_b a_2454_27034# VPWR sky130_fd_pr__pfet_01v8 ad=0p pd=0u as=4.8824e+12p ps=3.71e+07u w=1.36e+06u l=150000u
X26 a_2454_37330# en3_b out VPWR sky130_fd_pr__pfet_01v8 ad=4.8824e+12p pd=3.71e+07u as=0p ps=0u w=1.36e+06u l=150000u
X27 in_10 en_b a_301_28317# VPWR sky130_fd_pr__pfet_01v8 ad=2.244e+12p pd=1.69e+07u as=4.8824e+12p ps=3.71e+07u w=1.36e+06u l=150000u
X28 in_0 en_b a_301_41187# VPWR sky130_fd_pr__pfet_01v8 ad=2.244e+12p pd=1.69e+07u as=4.8824e+12p ps=3.71e+07u w=1.36e+06u l=150000u
X29 in_25 en a_301_9012# VGND sky130_fd_pr__nfet_01v8 ad=8.58e+11p pd=8.5e+06u as=1.8668e+12p ps=1.862e+07u w=520000u l=150000u
X30 a_301_10299# en in_24 VGND sky130_fd_pr__nfet_01v8 ad=1.8668e+12p pd=1.862e+07u as=8.58e+11p ps=8.5e+06u w=520000u l=150000u
X31 in_4 en_b a_301_36039# VPWR sky130_fd_pr__pfet_01v8 ad=2.244e+12p pd=1.69e+07u as=4.8824e+12p ps=3.71e+07u w=1.36e+06u l=150000u
X32 in_19 en_b a_301_16734# VPWR sky130_fd_pr__pfet_01v8 ad=2.244e+12p pd=1.69e+07u as=4.8824e+12p ps=3.71e+07u w=1.36e+06u l=150000u
X33 a_301_10299# en_b in_24 VPWR sky130_fd_pr__pfet_01v8 ad=4.8824e+12p pd=3.71e+07u as=2.244e+12p ps=1.69e+07u w=1.36e+06u l=150000u
X34 a_301_38613# en2_b a_2454_38617# VPWR sky130_fd_pr__pfet_01v8 ad=4.8824e+12p pd=3.71e+07u as=4.8824e+12p ps=3.71e+07u w=1.36e+06u l=150000u
X35 out a_2450_6354# a_2454_6442# VGND sky130_fd_pr__nfet_01v8 ad=0p pd=0u as=2.0118e+12p ps=2.02e+07u w=520000u l=150000u
X36 a_2454_5155# en28_b out VPWR sky130_fd_pr__pfet_01v8 ad=4.8824e+12p pd=3.71e+07u as=0p ps=0u w=1.36e+06u l=150000u
X37 a_301_15447# en_b in_20 VPWR sky130_fd_pr__pfet_01v8 ad=4.8824e+12p pd=3.71e+07u as=2.244e+12p ps=1.69e+07u w=1.36e+06u l=150000u
X38 in_10 en a_301_28317# VGND sky130_fd_pr__nfet_01v8 ad=8.58e+11p pd=8.5e+06u as=1.8668e+12p ps=1.862e+07u w=520000u l=150000u
X39 a_2454_15451# a_2450_15363# a_301_15447# VGND sky130_fd_pr__nfet_01v8 ad=2.0118e+12p pd=2.02e+07u as=1.8668e+12p ps=1.862e+07u w=520000u l=150000u
X40 a_2454_18025# en18_b a_301_18021# VPWR sky130_fd_pr__pfet_01v8 ad=0p pd=0u as=0p ps=0u w=1.36e+06u l=150000u
X41 in_19 en a_301_16734# VGND sky130_fd_pr__nfet_01v8 ad=8.58e+11p pd=8.5e+06u as=0p ps=0u w=520000u l=150000u
X42 a_301_38613# a_2450_38529# a_2454_38617# VGND sky130_fd_pr__nfet_01v8 ad=1.8668e+12p pd=1.862e+07u as=2.0118e+12p ps=2.02e+07u w=520000u l=150000u
X43 a_301_2577# en30_b a_2454_2581# VPWR sky130_fd_pr__pfet_01v8 ad=4.8824e+12p pd=3.71e+07u as=4.8824e+12p ps=3.71e+07u w=1.36e+06u l=150000u
X44 a_2454_30895# en8_b VGND VGND sky130_fd_pr__nfet_01v8 ad=2.0118e+12p pd=2.02e+07u as=0p ps=0u w=500000u l=150000u
X45 a_2454_7729# en26_b out VPWR sky130_fd_pr__pfet_01v8 ad=0p pd=0u as=0p ps=0u w=1.36e+06u l=150000u
X46 out a_2450_8928# a_2454_9016# VGND sky130_fd_pr__nfet_01v8 ad=0p pd=0u as=2.0118e+12p ps=2.02e+07u w=520000u l=150000u
X47 a_2454_15451# en20_b a_301_15447# VPWR sky130_fd_pr__pfet_01v8 ad=0p pd=0u as=0p ps=0u w=1.36e+06u l=150000u
X48 a_301_41187# a_2450_41103# a_2454_41191# VGND sky130_fd_pr__nfet_01v8 ad=1.8668e+12p pd=1.862e+07u as=0p ps=0u w=520000u l=150000u
X49 a_301_1290# en in_31 VGND sky130_fd_pr__nfet_01v8 ad=1.8668e+12p pd=1.862e+07u as=8.58e+11p ps=8.5e+06u w=520000u l=150000u
X50 a_301_20595# en16_b a_2454_20599# VPWR sky130_fd_pr__pfet_01v8 ad=4.8824e+12p pd=3.71e+07u as=4.8824e+12p ps=3.71e+07u w=1.36e+06u l=150000u
X51 out en15_b a_2454_21886# VPWR sky130_fd_pr__pfet_01v8 ad=0p pd=0u as=4.8824e+12p ps=3.71e+07u w=1.36e+06u l=150000u
X52 a_2454_32182# en7_b out VPWR sky130_fd_pr__pfet_01v8 ad=4.8824e+12p pd=3.71e+07u as=0p ps=0u w=1.36e+06u l=150000u
X53 in_26 en_b a_301_7725# VPWR sky130_fd_pr__pfet_01v8 ad=2.244e+12p pd=1.69e+07u as=0p ps=0u w=1.36e+06u l=150000u
X54 out en19_b a_2454_16738# VPWR sky130_fd_pr__pfet_01v8 ad=0p pd=0u as=4.8824e+12p ps=3.71e+07u w=1.36e+06u l=150000u
X55 a_2454_39904# en1_b out VPWR sky130_fd_pr__pfet_01v8 ad=4.8824e+12p pd=3.71e+07u as=0p ps=0u w=1.36e+06u l=150000u
X56 a_2454_12877# en22_b out VPWR sky130_fd_pr__pfet_01v8 ad=4.8824e+12p pd=3.71e+07u as=0p ps=0u w=1.36e+06u l=150000u
X57 a_301_21882# en_b in_15 VPWR sky130_fd_pr__pfet_01v8 ad=4.8824e+12p pd=3.71e+07u as=2.244e+12p ps=1.69e+07u w=1.36e+06u l=150000u
X58 a_301_25743# en12_b a_2454_25747# VPWR sky130_fd_pr__pfet_01v8 ad=4.8824e+12p pd=3.71e+07u as=4.8824e+12p ps=3.71e+07u w=1.36e+06u l=150000u
X59 a_2454_36043# en4_b a_301_36039# VPWR sky130_fd_pr__pfet_01v8 ad=4.8824e+12p pd=3.71e+07u as=0p ps=0u w=1.36e+06u l=150000u
X60 a_301_29604# en_b in_9 VPWR sky130_fd_pr__pfet_01v8 ad=4.8824e+12p pd=3.71e+07u as=2.244e+12p ps=1.69e+07u w=1.36e+06u l=150000u
X61 a_301_6438# en_b in_27 VPWR sky130_fd_pr__pfet_01v8 ad=0p pd=0u as=2.244e+12p ps=1.69e+07u w=1.36e+06u l=150000u
X62 a_301_5151# a_2450_5067# a_2454_5155# VGND sky130_fd_pr__nfet_01v8 ad=0p pd=0u as=0p ps=0u w=520000u l=150000u
X63 a_301_1290# en_b in_31 VPWR sky130_fd_pr__pfet_01v8 ad=0p pd=0u as=2.244e+12p ps=1.69e+07u w=1.36e+06u l=150000u
X64 a_2454_30895# a_2450_30807# out VGND sky130_fd_pr__nfet_01v8 ad=0p pd=0u as=0p ps=0u w=520000u l=150000u
X65 out a_2450_21798# a_2454_21886# VGND sky130_fd_pr__nfet_01v8 ad=0p pd=0u as=2.0118e+12p ps=2.02e+07u w=520000u l=150000u
X66 in_26 en a_301_7725# VGND sky130_fd_pr__nfet_01v8 ad=8.58e+11p pd=8.5e+06u as=1.8668e+12p ps=1.862e+07u w=520000u l=150000u
X67 a_2454_12877# a_2450_12789# out VGND sky130_fd_pr__nfet_01v8 ad=0p pd=0u as=0p ps=0u w=520000u l=150000u
X68 in_8 en a_301_30891# VGND sky130_fd_pr__nfet_01v8 ad=8.58e+11p pd=8.5e+06u as=1.8668e+12p ps=1.862e+07u w=520000u l=150000u
X69 in_23 en a_301_11586# VGND sky130_fd_pr__nfet_01v8 ad=8.58e+11p pd=8.5e+06u as=1.8668e+12p ps=1.862e+07u w=520000u l=150000u
X70 a_301_25743# a_2450_25659# a_2454_25747# VGND sky130_fd_pr__nfet_01v8 ad=1.8668e+12p pd=1.862e+07u as=2.0118e+12p ps=2.02e+07u w=520000u l=150000u
X71 a_301_21882# en in_15 VGND sky130_fd_pr__nfet_01v8 ad=1.8668e+12p pd=1.862e+07u as=8.58e+11p ps=8.5e+06u w=520000u l=150000u
X72 in_0 en_b a_301_41187# VPWR sky130_fd_pr__pfet_01v8 ad=0p pd=0u as=0p ps=0u w=1.36e+06u l=150000u
X73 out a_2450_29520# a_2454_29608# VGND sky130_fd_pr__nfet_01v8 ad=0p pd=0u as=2.0118e+12p ps=2.02e+07u w=520000u l=150000u
X74 a_301_41187# a_2450_41103# a_2454_41191# VGND sky130_fd_pr__nfet_01v8 ad=0p pd=0u as=0p ps=0u w=520000u l=150000u
X75 in_19 en_b a_301_16734# VPWR sky130_fd_pr__pfet_01v8 ad=0p pd=0u as=0p ps=0u w=1.36e+06u l=150000u
X76 a_2454_27034# a_2450_26946# out VGND sky130_fd_pr__nfet_01v8 ad=2.0118e+12p pd=2.02e+07u as=0p ps=0u w=520000u l=150000u
X77 out a_2450_37242# a_2454_37330# VGND sky130_fd_pr__nfet_01v8 ad=0p pd=0u as=2.0118e+12p ps=2.02e+07u w=520000u l=150000u
X78 a_2454_33469# a_2450_33381# out VGND sky130_fd_pr__nfet_01v8 ad=0p pd=0u as=0p ps=0u w=520000u l=150000u
X79 a_2454_1294# a_2450_1206# out VGND sky130_fd_pr__nfet_01v8 ad=2.0118e+12p pd=2.02e+07u as=0p ps=0u w=520000u l=150000u
X80 a_2454_32182# a_2450_32094# a_301_32178# VGND sky130_fd_pr__nfet_01v8 ad=0p pd=0u as=1.8668e+12p ps=1.862e+07u w=520000u l=150000u
X81 a_301_41187# en in_0 VGND sky130_fd_pr__nfet_01v8 ad=0p pd=0u as=8.58e+11p ps=8.5e+06u w=520000u l=150000u
X82 out a_2450_17937# a_2454_18025# VGND sky130_fd_pr__nfet_01v8 ad=0p pd=0u as=0p ps=0u w=520000u l=150000u
X83 a_2454_28321# a_2450_28233# out VGND sky130_fd_pr__nfet_01v8 ad=0p pd=0u as=0p ps=0u w=520000u l=150000u
X84 a_2454_11590# en23_b a_301_11586# VPWR sky130_fd_pr__pfet_01v8 ad=4.8824e+12p pd=3.71e+07u as=4.8824e+12p ps=3.71e+07u w=1.36e+06u l=150000u
X85 out en20_b a_2454_15451# VPWR sky130_fd_pr__pfet_01v8 ad=0p pd=0u as=0p ps=0u w=1.36e+06u l=150000u
X86 in_17 en a_301_19308# VGND sky130_fd_pr__nfet_01v8 ad=8.58e+11p pd=8.5e+06u as=1.8668e+12p ps=1.862e+07u w=520000u l=150000u
X87 in_7 en a_301_32178# VGND sky130_fd_pr__nfet_01v8 ad=8.58e+11p pd=8.5e+06u as=0p ps=0u w=520000u l=150000u
X88 out a_2450_19224# a_2454_19312# VGND sky130_fd_pr__nfet_01v8 ad=0p pd=0u as=0p ps=0u w=520000u l=150000u
X89 in_11 en a_301_27030# VGND sky130_fd_pr__nfet_01v8 ad=8.58e+11p pd=8.5e+06u as=1.8668e+12p ps=1.862e+07u w=520000u l=150000u
X90 a_301_18021# en in_18 VGND sky130_fd_pr__nfet_01v8 ad=0p pd=0u as=0p ps=0u w=520000u l=150000u
X91 a_2454_9016# en25_b a_301_9012# VPWR sky130_fd_pr__pfet_01v8 ad=4.8824e+12p pd=3.71e+07u as=0p ps=0u w=1.36e+06u l=150000u
X92 a_301_27030# en11_b a_2454_27034# VPWR sky130_fd_pr__pfet_01v8 ad=4.8824e+12p pd=3.71e+07u as=0p ps=0u w=1.36e+06u l=150000u
X93 a_2454_37330# en3_b a_301_37326# VPWR sky130_fd_pr__pfet_01v8 ad=0p pd=0u as=4.8824e+12p ps=3.71e+07u w=1.36e+06u l=150000u
X94 VPWR en7_b a_2450_32094# VPWR sky130_fd_pr__pfet_01v8_hvt ad=8.32e+12p pd=8.064e+07u as=2.6e+11p ps=2.52e+06u w=1e+06u l=150000u
X95 a_2454_6442# en27_b out VPWR sky130_fd_pr__pfet_01v8 ad=0p pd=0u as=0p ps=0u w=1.36e+06u l=150000u
X96 in_3 en_b a_301_37326# VPWR sky130_fd_pr__pfet_01v8 ad=2.244e+12p pd=1.69e+07u as=0p ps=0u w=1.36e+06u l=150000u
X97 a_2454_1294# en31_b out VPWR sky130_fd_pr__pfet_01v8 ad=0p pd=0u as=0p ps=0u w=1.36e+06u l=150000u
X98 in_19 en a_301_16734# VGND sky130_fd_pr__nfet_01v8 ad=0p pd=0u as=0p ps=0u w=520000u l=150000u
X99 a_2454_41191# a_2450_41103# a_301_41187# VGND sky130_fd_pr__nfet_01v8 ad=0p pd=0u as=0p ps=0u w=520000u l=150000u
X100 a_301_14160# en in_21 VGND sky130_fd_pr__nfet_01v8 ad=1.8668e+12p pd=1.862e+07u as=8.58e+11p ps=8.5e+06u w=520000u l=150000u
X101 out a_2450_7641# a_2454_7729# VGND sky130_fd_pr__nfet_01v8 ad=0p pd=0u as=2.0118e+12p ps=2.02e+07u w=520000u l=150000u
X102 a_2454_16738# a_2450_16650# a_301_16734# VGND sky130_fd_pr__nfet_01v8 ad=0p pd=0u as=0p ps=0u w=520000u l=150000u
X103 a_2454_2581# en30_b a_301_2577# VPWR sky130_fd_pr__pfet_01v8 ad=0p pd=0u as=0p ps=0u w=1.36e+06u l=150000u
X104 a_301_19308# en_b in_17 VPWR sky130_fd_pr__pfet_01v8 ad=4.8824e+12p pd=3.71e+07u as=2.244e+12p ps=1.69e+07u w=1.36e+06u l=150000u
X105 a_2454_9016# en25_b out VPWR sky130_fd_pr__pfet_01v8 ad=0p pd=0u as=0p ps=0u w=1.36e+06u l=150000u
X106 a_301_1290# a_2450_1206# a_2454_1294# VGND sky130_fd_pr__nfet_01v8 ad=0p pd=0u as=0p ps=0u w=520000u l=150000u
X107 a_2454_39904# en1_b VGND VGND sky130_fd_pr__nfet_01v8 ad=2.0118e+12p pd=2.02e+07u as=0p ps=0u w=500000u l=150000u
X108 a_301_33465# en6_b a_2454_33469# VPWR sky130_fd_pr__pfet_01v8 ad=4.8824e+12p pd=3.71e+07u as=4.8824e+12p ps=3.71e+07u w=1.36e+06u l=150000u
X109 a_301_2577# en in_30 VGND sky130_fd_pr__nfet_01v8 ad=1.8668e+12p pd=1.862e+07u as=8.58e+11p ps=8.5e+06u w=520000u l=150000u
X110 a_2454_27034# a_2450_26946# a_301_27030# VGND sky130_fd_pr__nfet_01v8 ad=0p pd=0u as=0p ps=0u w=520000u l=150000u
X111 a_301_41187# en0_b a_2454_41191# VPWR sky130_fd_pr__pfet_01v8 ad=0p pd=0u as=4.8824e+12p ps=3.71e+07u w=1.36e+06u l=150000u
X112 a_301_14160# en21_b a_2454_14164# VPWR sky130_fd_pr__pfet_01v8 ad=4.8824e+12p pd=3.71e+07u as=4.8824e+12p ps=3.71e+07u w=1.36e+06u l=150000u
X113 a_2454_24460# en13_b a_301_24456# VPWR sky130_fd_pr__pfet_01v8 ad=4.8824e+12p pd=3.71e+07u as=4.8824e+12p ps=3.71e+07u w=1.36e+06u l=150000u
X114 a_301_6438# en27_b a_2454_6442# VPWR sky130_fd_pr__pfet_01v8 ad=0p pd=0u as=0p ps=0u w=1.36e+06u l=150000u
X115 a_301_18021# a_2450_17937# a_2454_18025# VGND sky130_fd_pr__nfet_01v8 ad=0p pd=0u as=0p ps=0u w=520000u l=150000u
X116 a_301_6438# a_2450_6354# a_2454_6442# VGND sky130_fd_pr__nfet_01v8 ad=0p pd=0u as=0p ps=0u w=520000u l=150000u
X117 out en18_b a_2454_18025# VPWR sky130_fd_pr__pfet_01v8 ad=0p pd=0u as=0p ps=0u w=1.36e+06u l=150000u
X118 VPWR en27_b a_2450_6354# VPWR sky130_fd_pr__pfet_01v8_hvt ad=0p pd=0u as=2.6e+11p ps=2.52e+06u w=1e+06u l=150000u
X119 out en7_b a_2454_32182# VPWR sky130_fd_pr__pfet_01v8 ad=0p pd=0u as=0p ps=0u w=1.36e+06u l=150000u
X120 a_2454_21886# en15_b out VPWR sky130_fd_pr__pfet_01v8 ad=0p pd=0u as=0p ps=0u w=1.36e+06u l=150000u
X121 out en1_b a_2454_39904# VPWR sky130_fd_pr__pfet_01v8 ad=0p pd=0u as=0p ps=0u w=1.36e+06u l=150000u
X122 a_2454_16738# en19_b out VPWR sky130_fd_pr__pfet_01v8 ad=0p pd=0u as=0p ps=0u w=1.36e+06u l=150000u
X123 in_28 en_b a_301_5151# VPWR sky130_fd_pr__pfet_01v8 ad=0p pd=0u as=0p ps=0u w=1.36e+06u l=150000u
X124 VGND en22_b a_2450_12789# VGND sky130_fd_pr__nfet_01v8 ad=0p pd=0u as=1.69e+11p ps=1.82e+06u w=650000u l=150000u
X125 out en2_b a_2454_38617# VPWR sky130_fd_pr__pfet_01v8 ad=0p pd=0u as=0p ps=0u w=1.36e+06u l=150000u
X126 a_301_5151# en in_28 VGND sky130_fd_pr__nfet_01v8 ad=0p pd=0u as=8.58e+11p ps=8.5e+06u w=520000u l=150000u
X127 a_301_38613# en_b in_2 VPWR sky130_fd_pr__pfet_01v8 ad=0p pd=0u as=2.244e+12p ps=1.69e+07u w=1.36e+06u l=150000u
X128 out a_2450_30807# a_2454_30895# VGND sky130_fd_pr__nfet_01v8 ad=0p pd=0u as=0p ps=0u w=520000u l=150000u
X129 a_2454_15451# a_2450_15363# out VGND sky130_fd_pr__nfet_01v8 ad=0p pd=0u as=0p ps=0u w=520000u l=150000u
X130 a_2454_21886# a_2450_21798# out VGND sky130_fd_pr__nfet_01v8 ad=0p pd=0u as=0p ps=0u w=520000u l=150000u
X131 VGND en10_b a_2450_28233# VGND sky130_fd_pr__nfet_01v8 ad=0p pd=0u as=1.69e+11p ps=1.82e+06u w=650000u l=150000u
X132 in_16 en a_301_20595# VGND sky130_fd_pr__nfet_01v8 ad=8.58e+11p pd=8.5e+06u as=1.8668e+12p ps=1.862e+07u w=520000u l=150000u
X133 a_301_30891# en in_8 VGND sky130_fd_pr__nfet_01v8 ad=0p pd=0u as=0p ps=0u w=520000u l=150000u
X134 out a_2450_38529# a_2454_38617# VGND sky130_fd_pr__nfet_01v8 ad=0p pd=0u as=0p ps=0u w=520000u l=150000u
X135 a_301_34752# en_b in_5 VPWR sky130_fd_pr__pfet_01v8 ad=4.8824e+12p pd=3.71e+07u as=2.244e+12p ps=1.69e+07u w=1.36e+06u l=150000u
X136 a_2454_33469# a_2450_33381# a_301_33465# VGND sky130_fd_pr__nfet_01v8 ad=0p pd=0u as=0p ps=0u w=520000u l=150000u
X137 a_301_18021# a_2450_17937# a_2454_18025# VGND sky130_fd_pr__nfet_01v8 ad=0p pd=0u as=0p ps=0u w=520000u l=150000u
X138 a_2454_29608# a_2450_29520# out VGND sky130_fd_pr__nfet_01v8 ad=0p pd=0u as=0p ps=0u w=520000u l=150000u
X139 a_301_9012# en in_25 VGND sky130_fd_pr__nfet_01v8 ad=0p pd=0u as=0p ps=0u w=520000u l=150000u
X140 a_301_15447# en20_b a_2454_15451# VPWR sky130_fd_pr__pfet_01v8 ad=0p pd=0u as=0p ps=0u w=1.36e+06u l=150000u
X141 VPWR en16_b a_2450_20511# VPWR sky130_fd_pr__pfet_01v8_hvt ad=0p pd=0u as=2.6e+11p ps=2.52e+06u w=1e+06u l=150000u
X142 a_2454_37330# a_2450_37242# out VGND sky130_fd_pr__nfet_01v8 ad=0p pd=0u as=0p ps=0u w=520000u l=150000u
X143 out a_2450_26946# a_2454_27034# VGND sky130_fd_pr__nfet_01v8 ad=0p pd=0u as=0p ps=0u w=520000u l=150000u
X144 out en29_b a_2454_3868# VPWR sky130_fd_pr__pfet_01v8 ad=0p pd=0u as=4.8824e+12p ps=3.71e+07u w=1.36e+06u l=150000u
X145 in_10 en a_301_28317# VGND sky130_fd_pr__nfet_01v8 ad=0p pd=0u as=0p ps=0u w=520000u l=150000u
X146 in_0 en a_301_41187# VGND sky130_fd_pr__nfet_01v8 ad=0p pd=0u as=0p ps=0u w=520000u l=150000u
X147 a_301_38613# en in_2 VGND sky130_fd_pr__nfet_01v8 ad=0p pd=0u as=8.58e+11p ps=8.5e+06u w=520000u l=150000u
X148 a_301_19308# en in_17 VGND sky130_fd_pr__nfet_01v8 ad=0p pd=0u as=0p ps=0u w=520000u l=150000u
X149 a_2454_23173# en14_b VGND VGND sky130_fd_pr__nfet_01v8 ad=2.0118e+12p pd=2.02e+07u as=0p ps=0u w=500000u l=150000u
X150 a_2454_5155# a_2450_5067# out VGND sky130_fd_pr__nfet_01v8 ad=0p pd=0u as=0p ps=0u w=520000u l=150000u
X151 a_301_34752# en in_5 VGND sky130_fd_pr__nfet_01v8 ad=1.8668e+12p pd=1.862e+07u as=8.58e+11p ps=8.5e+06u w=520000u l=150000u
X152 a_301_15447# en in_20 VGND sky130_fd_pr__nfet_01v8 ad=0p pd=0u as=8.58e+11p ps=8.5e+06u w=520000u l=150000u
X153 a_2454_18025# a_2450_17937# a_301_18021# VGND sky130_fd_pr__nfet_01v8 ad=0p pd=0u as=0p ps=0u w=520000u l=150000u
X154 a_301_2577# a_2450_2493# a_2454_2581# VGND sky130_fd_pr__nfet_01v8 ad=0p pd=0u as=2.0118e+12p ps=2.02e+07u w=520000u l=150000u
X155 a_2454_1294# a_2450_1206# a_301_1290# VGND sky130_fd_pr__nfet_01v8 ad=0p pd=0u as=0p ps=0u w=520000u l=150000u
X156 a_2454_2581# en30_b VGND VGND sky130_fd_pr__nfet_01v8 ad=0p pd=0u as=0p ps=0u w=500000u l=150000u
X157 a_2454_20599# a_2450_20511# a_301_20595# VGND sky130_fd_pr__nfet_01v8 ad=2.0118e+12p pd=2.02e+07u as=0p ps=0u w=520000u l=150000u
X158 a_2454_15451# a_2450_15363# a_301_15447# VGND sky130_fd_pr__nfet_01v8 ad=0p pd=0u as=0p ps=0u w=520000u l=150000u
X159 a_301_30891# a_2450_30807# a_2454_30895# VGND sky130_fd_pr__nfet_01v8 ad=0p pd=0u as=0p ps=0u w=520000u l=150000u
X160 a_301_10299# en24_b a_2454_10303# VPWR sky130_fd_pr__pfet_01v8 ad=0p pd=0u as=4.8824e+12p ps=3.71e+07u w=1.36e+06u l=150000u
X161 out a_2450_41103# a_2454_41191# VGND sky130_fd_pr__nfet_01v8 ad=0p pd=0u as=0p ps=0u w=520000u l=150000u
X162 a_2454_6442# en27_b a_301_6438# VPWR sky130_fd_pr__pfet_01v8 ad=0p pd=0u as=0p ps=0u w=1.36e+06u l=150000u
X163 a_2454_32182# a_2450_32094# out VGND sky130_fd_pr__nfet_01v8 ad=0p pd=0u as=0p ps=0u w=520000u l=150000u
X164 a_2454_11590# en23_b out VPWR sky130_fd_pr__pfet_01v8 ad=0p pd=0u as=0p ps=0u w=1.36e+06u l=150000u
X165 a_301_11586# en_b in_23 VPWR sky130_fd_pr__pfet_01v8 ad=0p pd=0u as=2.244e+12p ps=1.69e+07u w=1.36e+06u l=150000u
X166 a_2454_36043# a_2450_35955# a_301_36039# VGND sky130_fd_pr__nfet_01v8 ad=2.0118e+12p pd=2.02e+07u as=1.8668e+12p ps=1.862e+07u w=520000u l=150000u
X167 a_2454_36043# en4_b out VPWR sky130_fd_pr__pfet_01v8 ad=0p pd=0u as=0p ps=0u w=1.36e+06u l=150000u
X168 a_301_7725# a_2450_7641# a_2454_7729# VGND sky130_fd_pr__nfet_01v8 ad=0p pd=0u as=0p ps=0u w=520000u l=150000u
X169 in_31 en_b a_301_1290# VPWR sky130_fd_pr__pfet_01v8 ad=0p pd=0u as=0p ps=0u w=1.36e+06u l=150000u
X170 out en11_b a_2454_27034# VPWR sky130_fd_pr__pfet_01v8 ad=0p pd=0u as=0p ps=0u w=1.36e+06u l=150000u
X171 a_2454_37330# en3_b out VPWR sky130_fd_pr__pfet_01v8 ad=0p pd=0u as=0p ps=0u w=1.36e+06u l=150000u
X172 a_2454_21886# en15_b a_301_21882# VPWR sky130_fd_pr__pfet_01v8 ad=0p pd=0u as=0p ps=0u w=1.36e+06u l=150000u
X173 in_0 en_b a_301_41187# VPWR sky130_fd_pr__pfet_01v8 ad=0p pd=0u as=0p ps=0u w=1.36e+06u l=150000u
X174 a_2454_18025# en18_b out VPWR sky130_fd_pr__pfet_01v8 ad=0p pd=0u as=0p ps=0u w=1.36e+06u l=150000u
X175 in_4 en_b a_301_36039# VPWR sky130_fd_pr__pfet_01v8 ad=0p pd=0u as=0p ps=0u w=1.36e+06u l=150000u
X176 in_19 en_b a_301_16734# VPWR sky130_fd_pr__pfet_01v8 ad=0p pd=0u as=0p ps=0u w=1.36e+06u l=150000u
X177 a_301_27030# en_b in_11 VPWR sky130_fd_pr__pfet_01v8 ad=0p pd=0u as=2.244e+12p ps=1.69e+07u w=1.36e+06u l=150000u
X178 a_301_6438# en in_27 VGND sky130_fd_pr__nfet_01v8 ad=0p pd=0u as=0p ps=0u w=520000u l=150000u
X179 a_2454_38617# en2_b out VPWR sky130_fd_pr__pfet_01v8 ad=0p pd=0u as=0p ps=0u w=1.36e+06u l=150000u
X180 in_0 en a_301_41187# VGND sky130_fd_pr__nfet_01v8 ad=0p pd=0u as=0p ps=0u w=520000u l=150000u
X181 a_2454_16738# a_2450_16650# out VGND sky130_fd_pr__nfet_01v8 ad=0p pd=0u as=0p ps=0u w=520000u l=150000u
X182 a_301_30891# a_2450_30807# a_2454_30895# VGND sky130_fd_pr__nfet_01v8 ad=0p pd=0u as=0p ps=0u w=520000u l=150000u
X183 a_301_23169# en_b in_14 VPWR sky130_fd_pr__pfet_01v8 ad=4.8824e+12p pd=3.71e+07u as=2.244e+12p ps=1.69e+07u w=1.36e+06u l=150000u
X184 a_2454_21886# a_2450_21798# a_301_21882# VGND sky130_fd_pr__nfet_01v8 ad=0p pd=0u as=0p ps=0u w=520000u l=150000u
X185 VGND en9_b a_2450_29520# VGND sky130_fd_pr__nfet_01v8 ad=0p pd=0u as=1.69e+11p ps=1.82e+06u w=650000u l=150000u
X186 a_301_30891# en_b in_8 VPWR sky130_fd_pr__pfet_01v8 ad=4.8824e+12p pd=3.71e+07u as=2.244e+12p ps=1.69e+07u w=1.36e+06u l=150000u
X187 out a_2450_15363# a_2454_15451# VGND sky130_fd_pr__nfet_01v8 ad=0p pd=0u as=0p ps=0u w=520000u l=150000u
X188 in_19 en a_301_16734# VGND sky130_fd_pr__nfet_01v8 ad=0p pd=0u as=0p ps=0u w=520000u l=150000u
X189 a_2454_33469# en6_b a_301_33465# VPWR sky130_fd_pr__pfet_01v8 ad=0p pd=0u as=0p ps=0u w=1.36e+06u l=150000u
X190 a_2454_9016# a_2450_8928# a_301_9012# VGND sky130_fd_pr__nfet_01v8 ad=0p pd=0u as=0p ps=0u w=520000u l=150000u
X191 a_2454_41191# en0_b a_301_41187# VPWR sky130_fd_pr__pfet_01v8 ad=0p pd=0u as=0p ps=0u w=1.36e+06u l=150000u
X192 a_2454_38617# a_2450_38529# out VGND sky130_fd_pr__nfet_01v8 ad=0p pd=0u as=0p ps=0u w=520000u l=150000u
X193 a_2454_37330# a_2450_37242# a_301_37326# VGND sky130_fd_pr__nfet_01v8 ad=0p pd=0u as=1.8668e+12p ps=1.862e+07u w=520000u l=150000u
X194 a_2454_6442# a_2450_6354# out VGND sky130_fd_pr__nfet_01v8 ad=0p pd=0u as=0p ps=0u w=520000u l=150000u
X195 a_301_27030# a_2450_26946# a_2454_27034# VGND sky130_fd_pr__nfet_01v8 ad=0p pd=0u as=0p ps=0u w=520000u l=150000u
X196 out en28_b a_2454_5155# VPWR sky130_fd_pr__pfet_01v8 ad=0p pd=0u as=0p ps=0u w=1.36e+06u l=150000u
X197 in_3 en a_301_37326# VGND sky130_fd_pr__nfet_01v8 ad=8.58e+11p pd=8.5e+06u as=0p ps=0u w=520000u l=150000u
X198 a_2454_30895# a_2450_30807# a_301_30891# VGND sky130_fd_pr__nfet_01v8 ad=0p pd=0u as=0p ps=0u w=520000u l=150000u
X199 a_2454_24460# en13_b VGND VGND sky130_fd_pr__nfet_01v8 ad=0p pd=0u as=0p ps=0u w=500000u l=150000u
X200 VPWR en3_b a_2450_37242# VPWR sky130_fd_pr__pfet_01v8_hvt ad=0p pd=0u as=2.6e+11p ps=2.52e+06u w=1e+06u l=150000u
X201 a_2454_11590# en23_b a_301_11586# VPWR sky130_fd_pr__pfet_01v8 ad=0p pd=0u as=0p ps=0u w=1.36e+06u l=150000u
X202 a_2454_2581# en30_b a_301_2577# VPWR sky130_fd_pr__pfet_01v8 ad=0p pd=0u as=0p ps=0u w=1.36e+06u l=150000u
X203 a_2454_2581# a_2450_2493# a_301_2577# VGND sky130_fd_pr__nfet_01v8 ad=0p pd=0u as=0p ps=0u w=520000u l=150000u
X204 a_301_3864# a_2450_3780# a_2454_3868# VGND sky130_fd_pr__nfet_01v8 ad=1.8668e+12p pd=1.862e+07u as=2.0118e+12p ps=2.02e+07u w=520000u l=150000u
X205 a_2454_9016# a_2450_8928# out VGND sky130_fd_pr__nfet_01v8 ad=0p pd=0u as=0p ps=0u w=520000u l=150000u
X206 a_301_7725# en_b in_26 VPWR sky130_fd_pr__pfet_01v8 ad=0p pd=0u as=0p ps=0u w=1.36e+06u l=150000u
X207 a_2454_6442# en27_b VGND VGND sky130_fd_pr__nfet_01v8 ad=0p pd=0u as=0p ps=0u w=500000u l=150000u
X208 a_2454_16738# a_2450_16650# a_301_16734# VGND sky130_fd_pr__nfet_01v8 ad=0p pd=0u as=0p ps=0u w=520000u l=150000u
X209 a_301_14160# a_2450_14076# a_2454_14164# VGND sky130_fd_pr__nfet_01v8 ad=0p pd=0u as=2.0118e+12p ps=2.02e+07u w=520000u l=150000u
X210 a_301_6438# a_2450_6354# a_2454_6442# VGND sky130_fd_pr__nfet_01v8 ad=0p pd=0u as=0p ps=0u w=520000u l=150000u
X211 a_2454_24460# a_2450_24372# a_301_24456# VGND sky130_fd_pr__nfet_01v8 ad=0p pd=0u as=0p ps=0u w=520000u l=150000u
X212 a_2454_33469# a_2450_33381# out VGND sky130_fd_pr__nfet_01v8 ad=0p pd=0u as=0p ps=0u w=520000u l=150000u
X213 a_2454_24460# en13_b out VPWR sky130_fd_pr__pfet_01v8 ad=0p pd=0u as=0p ps=0u w=1.36e+06u l=150000u
X214 out a_2450_17937# a_2454_18025# VGND sky130_fd_pr__nfet_01v8 ad=0p pd=0u as=0p ps=0u w=520000u l=150000u
X215 a_2454_41191# a_2450_41103# out VGND sky130_fd_pr__nfet_01v8 ad=0p pd=0u as=0p ps=0u w=520000u l=150000u
X216 out en20_b a_2454_15451# VPWR sky130_fd_pr__pfet_01v8 ad=0p pd=0u as=0p ps=0u w=1.36e+06u l=150000u
X217 in_7 en a_301_32178# VGND sky130_fd_pr__nfet_01v8 ad=0p pd=0u as=0p ps=0u w=520000u l=150000u
X218 out a_2450_32094# a_2454_32182# VGND sky130_fd_pr__nfet_01v8 ad=0p pd=0u as=0p ps=0u w=520000u l=150000u
X219 a_301_23169# en in_14 VGND sky130_fd_pr__nfet_01v8 ad=0p pd=0u as=0p ps=0u w=520000u l=150000u
X220 a_301_7725# en in_26 VGND sky130_fd_pr__nfet_01v8 ad=0p pd=0u as=0p ps=0u w=520000u l=150000u
X221 in_28 en a_301_5151# VGND sky130_fd_pr__nfet_01v8 ad=0p pd=0u as=0p ps=0u w=520000u l=150000u
X222 out en23_b a_2454_11590# VPWR sky130_fd_pr__pfet_01v8 ad=0p pd=0u as=0p ps=0u w=1.36e+06u l=150000u
X223 a_301_19308# en17_b a_2454_19312# VPWR sky130_fd_pr__pfet_01v8 ad=0p pd=0u as=4.8824e+12p ps=3.71e+07u w=1.36e+06u l=150000u
X224 out en4_b a_2454_36043# VPWR sky130_fd_pr__pfet_01v8 ad=0p pd=0u as=0p ps=0u w=1.36e+06u l=150000u
X225 in_3 en_b a_301_37326# VPWR sky130_fd_pr__pfet_01v8 ad=0p pd=0u as=0p ps=0u w=1.36e+06u l=150000u
X226 out en3_b a_2454_37330# VPWR sky130_fd_pr__pfet_01v8 ad=0p pd=0u as=0p ps=0u w=1.36e+06u l=150000u
X227 a_2454_27034# en11_b out VPWR sky130_fd_pr__pfet_01v8 ad=0p pd=0u as=0p ps=0u w=1.36e+06u l=150000u
X228 a_301_34752# en_b in_5 VPWR sky130_fd_pr__pfet_01v8 ad=0p pd=0u as=0p ps=0u w=1.36e+06u l=150000u
X229 a_301_28317# en_b in_10 VPWR sky130_fd_pr__pfet_01v8 ad=0p pd=0u as=0p ps=0u w=1.36e+06u l=150000u
X230 in_12 en_b a_301_25743# VPWR sky130_fd_pr__pfet_01v8 ad=2.244e+12p pd=1.69e+07u as=0p ps=0u w=1.36e+06u l=150000u
X231 a_301_36039# en_b in_4 VPWR sky130_fd_pr__pfet_01v8 ad=0p pd=0u as=0p ps=0u w=1.36e+06u l=150000u
X232 a_2454_38617# en2_b a_301_38613# VPWR sky130_fd_pr__pfet_01v8 ad=0p pd=0u as=0p ps=0u w=1.36e+06u l=150000u
X233 a_301_24456# en_b in_13 VPWR sky130_fd_pr__pfet_01v8 ad=0p pd=0u as=2.244e+12p ps=1.69e+07u w=1.36e+06u l=150000u
X234 a_301_32178# en_b in_7 VPWR sky130_fd_pr__pfet_01v8 ad=4.8824e+12p pd=3.71e+07u as=2.244e+12p ps=1.69e+07u w=1.36e+06u l=150000u
X235 a_301_39900# en_b in_1 VPWR sky130_fd_pr__pfet_01v8 ad=4.8824e+12p pd=3.71e+07u as=2.244e+12p ps=1.69e+07u w=1.36e+06u l=150000u
X236 a_301_15447# a_2450_15363# a_2454_15451# VGND sky130_fd_pr__nfet_01v8 ad=0p pd=0u as=0p ps=0u w=520000u l=150000u
X237 out a_2450_16650# a_2454_16738# VGND sky130_fd_pr__nfet_01v8 ad=0p pd=0u as=0p ps=0u w=520000u l=150000u
X238 a_301_34752# en in_5 VGND sky130_fd_pr__nfet_01v8 ad=0p pd=0u as=0p ps=0u w=520000u l=150000u
X239 a_2454_3868# en29_b out VPWR sky130_fd_pr__pfet_01v8 ad=0p pd=0u as=0p ps=0u w=1.36e+06u l=150000u
X240 out en31_b a_2454_1294# VPWR sky130_fd_pr__pfet_01v8 ad=0p pd=0u as=0p ps=0u w=1.36e+06u l=150000u
X241 in_12 en a_301_25743# VGND sky130_fd_pr__nfet_01v8 ad=8.58e+11p pd=8.5e+06u as=0p ps=0u w=520000u l=150000u
X242 a_2454_12877# en22_b VGND VGND sky130_fd_pr__nfet_01v8 ad=0p pd=0u as=0p ps=0u w=500000u l=150000u
X243 a_2454_38617# a_2450_38529# a_301_38613# VGND sky130_fd_pr__nfet_01v8 ad=0p pd=0u as=0p ps=0u w=520000u l=150000u
X244 a_2454_7729# a_2450_7641# out VGND sky130_fd_pr__nfet_01v8 ad=0p pd=0u as=0p ps=0u w=520000u l=150000u
X245 a_2454_20599# en16_b VGND VGND sky130_fd_pr__nfet_01v8 ad=0p pd=0u as=0p ps=0u w=500000u l=150000u
X246 a_301_2577# en30_b a_2454_2581# VPWR sky130_fd_pr__pfet_01v8 ad=0p pd=0u as=0p ps=0u w=1.36e+06u l=150000u
X247 a_301_7725# en26_b a_2454_7729# VPWR sky130_fd_pr__pfet_01v8 ad=0p pd=0u as=0p ps=0u w=1.36e+06u l=150000u