* NGSPICE file created from bgr_top.ext - technology: sky130A

.subckt sky130_asc_res_xhigh_po_2p85_1 Rin Rout VPWR VGND a_2148_115#
X0 Rin a_2148_115# VGND sky130_fd_pr__res_xhigh_po_2p85 l=7.88e+06u
X1 Rout a_2148_115# VGND sky130_fd_pr__res_xhigh_po_2p85 l=7.88e+06u
C0 VPWR a_2148_115# 0.17fF
C1 VPWR Rin 0.17fF
C2 Rin Rout 0.12fF
C3 VPWR VGND 2.31fF
C4 Rout VGND 1.26fF
C5 Rin VGND 0.78fF
C6 a_2148_115# VGND 2.70fF
.ends

.subckt sky130_asc_pfet_01v8_lvt_60 GATE SOURCE DRAIN VGND VPWR VSUBS
X0 DRAIN GATE SOURCE VPWR sky130_fd_pr__pfet_01v8_lvt ad=5.79855e+13p pd=4.1788e+08u as=5.6115e+13p ps=4.044e+08u w=6.45e+06u l=2e+06u
X1 SOURCE GATE DRAIN VPWR sky130_fd_pr__pfet_01v8_lvt ad=0p pd=0u as=0p ps=0u w=6.45e+06u l=2e+06u
X2 DRAIN GATE SOURCE VPWR sky130_fd_pr__pfet_01v8_lvt ad=0p pd=0u as=0p ps=0u w=6.45e+06u l=2e+06u
X3 SOURCE GATE DRAIN VPWR sky130_fd_pr__pfet_01v8_lvt ad=0p pd=0u as=0p ps=0u w=6.45e+06u l=2e+06u
X4 DRAIN GATE SOURCE VPWR sky130_fd_pr__pfet_01v8_lvt ad=0p pd=0u as=0p ps=0u w=6.45e+06u l=2e+06u
X5 DRAIN GATE SOURCE VPWR sky130_fd_pr__pfet_01v8_lvt ad=0p pd=0u as=0p ps=0u w=6.45e+06u l=2e+06u
X6 DRAIN GATE SOURCE VPWR sky130_fd_pr__pfet_01v8_lvt ad=0p pd=0u as=0p ps=0u w=6.45e+06u l=2e+06u
X7 DRAIN GATE SOURCE VPWR sky130_fd_pr__pfet_01v8_lvt ad=0p pd=0u as=0p ps=0u w=6.45e+06u l=2e+06u
X8 DRAIN GATE SOURCE VPWR sky130_fd_pr__pfet_01v8_lvt ad=0p pd=0u as=0p ps=0u w=6.45e+06u l=2e+06u
X9 SOURCE GATE DRAIN VPWR sky130_fd_pr__pfet_01v8_lvt ad=0p pd=0u as=0p ps=0u w=6.45e+06u l=2e+06u
X10 DRAIN GATE SOURCE VPWR sky130_fd_pr__pfet_01v8_lvt ad=0p pd=0u as=0p ps=0u w=6.45e+06u l=2e+06u
X11 SOURCE GATE DRAIN VPWR sky130_fd_pr__pfet_01v8_lvt ad=0p pd=0u as=0p ps=0u w=6.45e+06u l=2e+06u
X12 SOURCE GATE DRAIN VPWR sky130_fd_pr__pfet_01v8_lvt ad=0p pd=0u as=0p ps=0u w=6.45e+06u l=2e+06u
X13 DRAIN GATE SOURCE VPWR sky130_fd_pr__pfet_01v8_lvt ad=0p pd=0u as=0p ps=0u w=6.45e+06u l=2e+06u
X14 DRAIN GATE SOURCE VPWR sky130_fd_pr__pfet_01v8_lvt ad=0p pd=0u as=0p ps=0u w=6.45e+06u l=2e+06u
X15 SOURCE GATE DRAIN VPWR sky130_fd_pr__pfet_01v8_lvt ad=0p pd=0u as=0p ps=0u w=6.45e+06u l=2e+06u
X16 SOURCE GATE DRAIN VPWR sky130_fd_pr__pfet_01v8_lvt ad=0p pd=0u as=0p ps=0u w=6.45e+06u l=2e+06u
X17 DRAIN GATE SOURCE VPWR sky130_fd_pr__pfet_01v8_lvt ad=0p pd=0u as=0p ps=0u w=6.45e+06u l=2e+06u
X18 SOURCE GATE DRAIN VPWR sky130_fd_pr__pfet_01v8_lvt ad=0p pd=0u as=0p ps=0u w=6.45e+06u l=2e+06u
X19 DRAIN GATE SOURCE VPWR sky130_fd_pr__pfet_01v8_lvt ad=0p pd=0u as=0p ps=0u w=6.45e+06u l=2e+06u
X20 SOURCE GATE DRAIN VPWR sky130_fd_pr__pfet_01v8_lvt ad=0p pd=0u as=0p ps=0u w=6.45e+06u l=2e+06u
X21 DRAIN GATE SOURCE VPWR sky130_fd_pr__pfet_01v8_lvt ad=0p pd=0u as=0p ps=0u w=6.45e+06u l=2e+06u
X22 SOURCE GATE DRAIN VPWR sky130_fd_pr__pfet_01v8_lvt ad=0p pd=0u as=0p ps=0u w=6.45e+06u l=2e+06u
X23 DRAIN GATE SOURCE VPWR sky130_fd_pr__pfet_01v8_lvt ad=0p pd=0u as=0p ps=0u w=6.45e+06u l=2e+06u
X24 SOURCE GATE DRAIN VPWR sky130_fd_pr__pfet_01v8_lvt ad=0p pd=0u as=0p ps=0u w=6.45e+06u l=2e+06u
X25 DRAIN GATE SOURCE VPWR sky130_fd_pr__pfet_01v8_lvt ad=0p pd=0u as=0p ps=0u w=6.45e+06u l=2e+06u
X26 SOURCE GATE DRAIN VPWR sky130_fd_pr__pfet_01v8_lvt ad=0p pd=0u as=0p ps=0u w=6.45e+06u l=2e+06u
X27 SOURCE GATE DRAIN VPWR sky130_fd_pr__pfet_01v8_lvt ad=0p pd=0u as=0p ps=0u w=6.45e+06u l=2e+06u
X28 DRAIN GATE SOURCE VPWR sky130_fd_pr__pfet_01v8_lvt ad=0p pd=0u as=0p ps=0u w=6.45e+06u l=2e+06u
X29 SOURCE GATE DRAIN VPWR sky130_fd_pr__pfet_01v8_lvt ad=0p pd=0u as=0p ps=0u w=6.45e+06u l=2e+06u
X30 DRAIN GATE SOURCE VPWR sky130_fd_pr__pfet_01v8_lvt ad=0p pd=0u as=0p ps=0u w=6.45e+06u l=2e+06u
X31 SOURCE GATE DRAIN VPWR sky130_fd_pr__pfet_01v8_lvt ad=0p pd=0u as=0p ps=0u w=6.45e+06u l=2e+06u
X32 DRAIN GATE SOURCE VPWR sky130_fd_pr__pfet_01v8_lvt ad=0p pd=0u as=0p ps=0u w=6.45e+06u l=2e+06u
X33 SOURCE GATE DRAIN VPWR sky130_fd_pr__pfet_01v8_lvt ad=0p pd=0u as=0p ps=0u w=6.45e+06u l=2e+06u
X34 DRAIN GATE SOURCE VPWR sky130_fd_pr__pfet_01v8_lvt ad=0p pd=0u as=0p ps=0u w=6.45e+06u l=2e+06u
X35 SOURCE GATE DRAIN VPWR sky130_fd_pr__pfet_01v8_lvt ad=0p pd=0u as=0p ps=0u w=6.45e+06u l=2e+06u
X36 DRAIN GATE SOURCE VPWR sky130_fd_pr__pfet_01v8_lvt ad=0p pd=0u as=0p ps=0u w=6.45e+06u l=2e+06u
X37 SOURCE GATE DRAIN VPWR sky130_fd_pr__pfet_01v8_lvt ad=0p pd=0u as=0p ps=0u w=6.45e+06u l=2e+06u
X38 DRAIN GATE SOURCE VPWR sky130_fd_pr__pfet_01v8_lvt ad=0p pd=0u as=0p ps=0u w=6.45e+06u l=2e+06u
X39 SOURCE GATE DRAIN VPWR sky130_fd_pr__pfet_01v8_lvt ad=0p pd=0u as=0p ps=0u w=6.45e+06u l=2e+06u
X40 SOURCE GATE DRAIN VPWR sky130_fd_pr__pfet_01v8_lvt ad=0p pd=0u as=0p ps=0u w=6.45e+06u l=2e+06u
X41 DRAIN GATE SOURCE VPWR sky130_fd_pr__pfet_01v8_lvt ad=0p pd=0u as=0p ps=0u w=6.45e+06u l=2e+06u
X42 DRAIN GATE SOURCE VPWR sky130_fd_pr__pfet_01v8_lvt ad=0p pd=0u as=0p ps=0u w=6.45e+06u l=2e+06u
X43 DRAIN GATE SOURCE VPWR sky130_fd_pr__pfet_01v8_lvt ad=0p pd=0u as=0p ps=0u w=6.45e+06u l=2e+06u
X44 SOURCE GATE DRAIN VPWR sky130_fd_pr__pfet_01v8_lvt ad=0p pd=0u as=0p ps=0u w=6.45e+06u l=2e+06u
X45 SOURCE GATE DRAIN VPWR sky130_fd_pr__pfet_01v8_lvt ad=0p pd=0u as=0p ps=0u w=6.45e+06u l=2e+06u
X46 DRAIN GATE SOURCE VPWR sky130_fd_pr__pfet_01v8_lvt ad=0p pd=0u as=0p ps=0u w=6.45e+06u l=2e+06u
X47 SOURCE GATE DRAIN VPWR sky130_fd_pr__pfet_01v8_lvt ad=0p pd=0u as=0p ps=0u w=6.45e+06u l=2e+06u
X48 SOURCE GATE DRAIN VPWR sky130_fd_pr__pfet_01v8_lvt ad=0p pd=0u as=0p ps=0u w=6.45e+06u l=2e+06u
X49 SOURCE GATE DRAIN VPWR sky130_fd_pr__pfet_01v8_lvt ad=0p pd=0u as=0p ps=0u w=6.45e+06u l=2e+06u
X50 DRAIN GATE SOURCE VPWR sky130_fd_pr__pfet_01v8_lvt ad=0p pd=0u as=0p ps=0u w=6.45e+06u l=2e+06u
X51 SOURCE GATE DRAIN VPWR sky130_fd_pr__pfet_01v8_lvt ad=0p pd=0u as=0p ps=0u w=6.45e+06u l=2e+06u
X52 SOURCE GATE DRAIN VPWR sky130_fd_pr__pfet_01v8_lvt ad=0p pd=0u as=0p ps=0u w=6.45e+06u l=2e+06u
X53 SOURCE GATE DRAIN VPWR sky130_fd_pr__pfet_01v8_lvt ad=0p pd=0u as=0p ps=0u w=6.45e+06u l=2e+06u
X54 DRAIN GATE SOURCE VPWR sky130_fd_pr__pfet_01v8_lvt ad=0p pd=0u as=0p ps=0u w=6.45e+06u l=2e+06u
X55 SOURCE GATE DRAIN VPWR sky130_fd_pr__pfet_01v8_lvt ad=0p pd=0u as=0p ps=0u w=6.45e+06u l=2e+06u
X56 DRAIN GATE SOURCE VPWR sky130_fd_pr__pfet_01v8_lvt ad=0p pd=0u as=0p ps=0u w=6.45e+06u l=2e+06u
X57 DRAIN GATE SOURCE VPWR sky130_fd_pr__pfet_01v8_lvt ad=0p pd=0u as=0p ps=0u w=6.45e+06u l=2e+06u
X58 SOURCE GATE DRAIN VPWR sky130_fd_pr__pfet_01v8_lvt ad=0p pd=0u as=0p ps=0u w=6.45e+06u l=2e+06u
X59 DRAIN GATE SOURCE VPWR sky130_fd_pr__pfet_01v8_lvt ad=0p pd=0u as=0p ps=0u w=6.45e+06u l=2e+06u
C0 VGND DRAIN 5.28fF
C1 VPWR SOURCE 22.83fF
C2 GATE DRAIN 25.46fF
C3 VGND GATE 12.31fF
C4 VPWR DRAIN 1.83fF
C5 SOURCE DRAIN 1.25fF
C6 VGND SOURCE 0.32fF
C7 GATE VPWR 27.32fF
C8 GATE SOURCE 0.18fF
C9 VGND VSUBS 25.41fF
C10 SOURCE VSUBS 0.00fF
C11 DRAIN VSUBS 9.62fF
C12 GATE VSUBS 30.27fF
C13 VPWR VSUBS 142.65fF
.ends

.subckt sky130_asc_pnp_05v5_W3p40L3p40_7 Emitter Base Collector VPWR VGND
X0 Collector Base Emitter sky130_fd_pr__pnp_05v5_W3p40L3p40
X1 Collector Base Emitter sky130_fd_pr__pnp_05v5_W3p40L3p40
X2 Collector Base Emitter sky130_fd_pr__pnp_05v5_W3p40L3p40
X3 Collector Base Emitter sky130_fd_pr__pnp_05v5_W3p40L3p40
X4 Collector Base Emitter sky130_fd_pr__pnp_05v5_W3p40L3p40
X5 Collector Base Emitter sky130_fd_pr__pnp_05v5_W3p40L3p40
X6 Collector Base Emitter sky130_fd_pr__pnp_05v5_W3p40L3p40
C0 Emitter Base 18.67fF
C1 VGND Collector 9.81fF
C2 VPWR Collector 11.49fF
C3 Emitter Collector 9.06fF
C4 Base Collector 28.86fF
.ends

.subckt sky130_asc_res_xhigh_po_2p85_2 Rin Rout VPWR a_2723_115# VGND
X0 Rout a_2723_115# VGND sky130_fd_pr__res_xhigh_po_0p35 w=2.85e+06u l=1.075e+07u
X1 Rin a_2723_115# VGND sky130_fd_pr__res_xhigh_po_0p35 w=2.85e+06u l=1.075e+07u
C0 a_2723_115# VPWR 0.17fF
C1 Rin VPWR 0.17fF
C2 Rin Rout 0.12fF
C3 VPWR VGND 2.83fF
C4 Rout VGND 1.26fF
C5 Rin VGND 0.78fF
C6 a_2723_115# VGND 2.70fF
.ends

.subckt sky130_asc_pfet_01v8_lvt_12 GATE SOURCE DRAIN VGND VPWR VSUBS
X0 SOURCE GATE DRAIN VPWR sky130_fd_pr__pfet_01v8_lvt ad=1.1223e+13p pd=8.088e+07u as=1.30935e+13p ps=9.436e+07u w=6.45e+06u l=2e+06u
X1 DRAIN GATE SOURCE VPWR sky130_fd_pr__pfet_01v8_lvt ad=0p pd=0u as=0p ps=0u w=6.45e+06u l=2e+06u
X2 DRAIN GATE SOURCE VPWR sky130_fd_pr__pfet_01v8_lvt ad=0p pd=0u as=0p ps=0u w=6.45e+06u l=2e+06u
X3 SOURCE GATE DRAIN VPWR sky130_fd_pr__pfet_01v8_lvt ad=0p pd=0u as=0p ps=0u w=6.45e+06u l=2e+06u
X4 SOURCE GATE DRAIN VPWR sky130_fd_pr__pfet_01v8_lvt ad=0p pd=0u as=0p ps=0u w=6.45e+06u l=2e+06u
X5 DRAIN GATE SOURCE VPWR sky130_fd_pr__pfet_01v8_lvt ad=0p pd=0u as=0p ps=0u w=6.45e+06u l=2e+06u
X6 SOURCE GATE DRAIN VPWR sky130_fd_pr__pfet_01v8_lvt ad=0p pd=0u as=0p ps=0u w=6.45e+06u l=2e+06u
X7 DRAIN GATE SOURCE VPWR sky130_fd_pr__pfet_01v8_lvt ad=0p pd=0u as=0p ps=0u w=6.45e+06u l=2e+06u
X8 DRAIN GATE SOURCE VPWR sky130_fd_pr__pfet_01v8_lvt ad=0p pd=0u as=0p ps=0u w=6.45e+06u l=2e+06u
X9 SOURCE GATE DRAIN VPWR sky130_fd_pr__pfet_01v8_lvt ad=0p pd=0u as=0p ps=0u w=6.45e+06u l=2e+06u
X10 SOURCE GATE DRAIN VPWR sky130_fd_pr__pfet_01v8_lvt ad=0p pd=0u as=0p ps=0u w=6.45e+06u l=2e+06u
X11 DRAIN GATE SOURCE VPWR sky130_fd_pr__pfet_01v8_lvt ad=0p pd=0u as=0p ps=0u w=6.45e+06u l=2e+06u
C0 GATE SOURCE 0.04fF
C1 GATE DRAIN 5.17fF
C2 GATE VGND 2.51fF
C3 GATE VPWR 5.46fF
C4 DRAIN SOURCE 0.26fF
C5 VGND SOURCE 0.06fF
C6 VPWR SOURCE 4.54fF
C7 DRAIN VGND 1.08fF
C8 DRAIN VPWR 0.42fF
C9 VGND VSUBS 5.31fF
C10 SOURCE VSUBS 0.00fF
C11 DRAIN VSUBS 1.99fF
C12 GATE VSUBS 6.20fF
C13 VPWR VSUBS 29.52fF
.ends

.subckt sky130_asc_nfet_01v8_lvt_9 GATE SOURCE DRAIN VPWR VGND
X0 SOURCE GATE DRAIN VGND sky130_fd_pr__nfet_01v8_lvt ad=5.8e+12p pd=4.29e+07u as=5.8e+12p ps=4.29e+07u w=4e+06u l=2e+06u
X1 SOURCE GATE DRAIN VGND sky130_fd_pr__nfet_01v8_lvt ad=0p pd=0u as=0p ps=0u w=4e+06u l=2e+06u
X2 DRAIN GATE SOURCE VGND sky130_fd_pr__nfet_01v8_lvt ad=0p pd=0u as=0p ps=0u w=4e+06u l=2e+06u
X3 SOURCE GATE DRAIN VGND sky130_fd_pr__nfet_01v8_lvt ad=0p pd=0u as=0p ps=0u w=4e+06u l=2e+06u
X4 DRAIN GATE SOURCE VGND sky130_fd_pr__nfet_01v8_lvt ad=0p pd=0u as=0p ps=0u w=4e+06u l=2e+06u
X5 SOURCE GATE DRAIN VGND sky130_fd_pr__nfet_01v8_lvt ad=0p pd=0u as=0p ps=0u w=4e+06u l=2e+06u
X6 DRAIN GATE SOURCE VGND sky130_fd_pr__nfet_01v8_lvt ad=0p pd=0u as=0p ps=0u w=4e+06u l=2e+06u
X7 SOURCE GATE DRAIN VGND sky130_fd_pr__nfet_01v8_lvt ad=0p pd=0u as=0p ps=0u w=4e+06u l=2e+06u
X8 DRAIN GATE SOURCE VGND sky130_fd_pr__nfet_01v8_lvt ad=0p pd=0u as=0p ps=0u w=4e+06u l=2e+06u
C0 VPWR SOURCE 1.38fF
C1 SOURCE GATE 0.01fF
C2 DRAIN GATE 1.66fF
C3 SOURCE DRAIN 0.05fF
C4 VPWR VGND 3.99fF
C5 SOURCE VGND 2.64fF
C6 DRAIN VGND 2.28fF
C7 GATE VGND 11.48fF
.ends

.subckt sky130_asc_pfet_01v8_lvt_6 GATE SOURCE DRAIN VGND VPWR VSUBS
X0 SOURCE GATE DRAIN VPWR sky130_fd_pr__pfet_01v8_lvt ad=5.6115e+12p pd=4.044e+07u as=7.482e+12p ps=5.392e+07u w=6.45e+06u l=2e+06u
X1 SOURCE GATE DRAIN VPWR sky130_fd_pr__pfet_01v8_lvt ad=0p pd=0u as=0p ps=0u w=6.45e+06u l=2e+06u
X2 DRAIN GATE SOURCE VPWR sky130_fd_pr__pfet_01v8_lvt ad=0p pd=0u as=0p ps=0u w=6.45e+06u l=2e+06u
X3 DRAIN GATE SOURCE VPWR sky130_fd_pr__pfet_01v8_lvt ad=0p pd=0u as=0p ps=0u w=6.45e+06u l=2e+06u
X4 SOURCE GATE DRAIN VPWR sky130_fd_pr__pfet_01v8_lvt ad=0p pd=0u as=0p ps=0u w=6.45e+06u l=2e+06u
X5 DRAIN GATE SOURCE VPWR sky130_fd_pr__pfet_01v8_lvt ad=0p pd=0u as=0p ps=0u w=6.45e+06u l=2e+06u
C0 VPWR SOURCE 2.27fF
C1 GATE SOURCE 0.02fF
C2 VGND GATE 1.28fF
C3 DRAIN VPWR 0.24fF
C4 DRAIN GATE 2.63fF
C5 VGND SOURCE 0.03fF
C6 VPWR GATE 2.73fF
C7 DRAIN SOURCE 0.14fF
C8 VGND DRAIN 0.56fF
C9 VGND VSUBS 2.79fF
C10 SOURCE VSUBS 0.00fF
C11 DRAIN VSUBS 1.04fF
C12 GATE VSUBS 3.19fF
C13 VPWR VSUBS 15.38fF
.ends

.subckt sky130_asc_pnp_05v5_W3p40L3p40_1 Emitter Base Collector VPWR VGND
X0 Collector Base Emitter sky130_fd_pr__pnp_05v5_W3p40L3p40
C0 Emitter Base 1.55fF
C1 VGND Collector 1.50fF
C2 VPWR Collector 1.46fF
C3 Emitter Collector 0.40fF
C4 Base Collector 3.33fF
.ends

.subckt sky130_asc_cap_mim_m3_1 Cin Cout VPWR VGND VSUBS
X0 Cout Cin sky130_fd_pr__cap_mim_m3_1 l=2e+06u w=2e+06u
X1 Cout Cin sky130_fd_pr__cap_mim_m3_1 l=2e+06u w=2e+06u
X2 Cout Cin sky130_fd_pr__cap_mim_m3_1 l=2e+06u w=2e+06u
X3 Cout Cin sky130_fd_pr__cap_mim_m3_1 l=2e+06u w=2e+06u
X4 Cout Cin sky130_fd_pr__cap_mim_m3_1 l=2e+06u w=2e+06u
X5 Cout Cin sky130_fd_pr__cap_mim_m3_1 l=2e+06u w=2e+06u
X6 Cout Cin sky130_fd_pr__cap_mim_m3_1 l=2e+06u w=2e+06u
X7 Cout Cin sky130_fd_pr__cap_mim_m3_1 l=2e+06u w=2e+06u
X8 Cout Cin sky130_fd_pr__cap_mim_m3_1 l=2e+06u w=2e+06u
X9 Cout Cin sky130_fd_pr__cap_mim_m3_1 l=2e+06u w=2e+06u
X10 Cout Cin sky130_fd_pr__cap_mim_m3_1 l=2e+06u w=2e+06u
X11 Cout Cin sky130_fd_pr__cap_mim_m3_1 l=2e+06u w=2e+06u
X12 Cout Cin sky130_fd_pr__cap_mim_m3_1 l=2e+06u w=2e+06u
X13 Cout Cin sky130_fd_pr__cap_mim_m3_1 l=2e+06u w=2e+06u
X14 Cout Cin sky130_fd_pr__cap_mim_m3_1 l=2e+06u w=2e+06u
X15 Cout Cin sky130_fd_pr__cap_mim_m3_1 l=2e+06u w=2e+06u
X16 Cout Cin sky130_fd_pr__cap_mim_m3_1 l=2e+06u w=2e+06u
X17 Cout Cin sky130_fd_pr__cap_mim_m3_1 l=2e+06u w=2e+06u
X18 Cout Cin sky130_fd_pr__cap_mim_m3_1 l=2e+06u w=2e+06u
X19 Cout Cin sky130_fd_pr__cap_mim_m3_1 l=2e+06u w=2e+06u
C0 Cin Cout 28.31fF
C1 Cout VSUBS 2.81fF
C2 Cin VSUBS 6.38fF
C3 VGND VSUBS 6.63fF
C4 VPWR VSUBS 6.63fF
.ends

.subckt sky130_asc_pnp_05v5_W3p40L3p40_8 Emitter Base Collector VPWR VGND
X0 Collector Base Emitter sky130_fd_pr__pnp_05v5_W3p40L3p40
X1 Collector Base Emitter sky130_fd_pr__pnp_05v5_W3p40L3p40
X2 Collector Base Emitter sky130_fd_pr__pnp_05v5_W3p40L3p40
X3 Collector Base Emitter sky130_fd_pr__pnp_05v5_W3p40L3p40
X4 Collector Base Emitter sky130_fd_pr__pnp_05v5_W3p40L3p40
X5 Collector Base Emitter sky130_fd_pr__pnp_05v5_W3p40L3p40
X6 Collector Base Emitter sky130_fd_pr__pnp_05v5_W3p40L3p40
X7 Collector Base Emitter sky130_fd_pr__pnp_05v5_W3p40L3p40
C0 Base Emitter 21.50fF
C1 VGND Collector 11.20fF
C2 VPWR Collector 13.12fF
C3 Emitter Collector 10.49fF
C4 Base Collector 33.06fF
.ends

.subckt sky130_asc_nfet_01v8_lvt_1 GATE SOURCE DRAIN VPWR VGND
X0 SOURCE GATE DRAIN VGND sky130_fd_pr__nfet_01v8_lvt ad=1.16e+12p pd=8.58e+06u as=1.16e+12p ps=8.58e+06u w=4e+06u l=2e+06u
C0 GATE SOURCE 0.00fF
C1 VPWR SOURCE 0.17fF
C2 GATE DRAIN 0.18fF
C3 DRAIN SOURCE 0.01fF
C4 VPWR VGND 0.64fF
C5 SOURCE VGND 0.40fF
C6 DRAIN VGND 0.34fF
C7 GATE VGND 1.34fF
.ends

.subckt bgr_top porst va vb vbg VSS VDD
Xsky130_asc_res_xhigh_po_2p85_1_7 sky130_asc_res_xhigh_po_2p85_1_7/Rin sky130_asc_res_xhigh_po_2p85_1_6/Rin
+ VDD VSS sky130_asc_res_xhigh_po_2p85_1_7/a_2148_115# sky130_asc_res_xhigh_po_2p85_1
Xsky130_asc_res_xhigh_po_2p85_1_8 vbg sky130_asc_res_xhigh_po_2p85_1_7/Rin VDD VSS
+ sky130_asc_res_xhigh_po_2p85_1_8/a_2148_115# sky130_asc_res_xhigh_po_2p85_1
Xsky130_asc_res_xhigh_po_2p85_1_9 sky130_asc_res_xhigh_po_2p85_1_9/Rin sky130_asc_res_xhigh_po_2p85_2_0/Rin
+ VDD VSS sky130_asc_res_xhigh_po_2p85_1_9/a_2148_115# sky130_asc_res_xhigh_po_2p85_1
Xsky130_asc_pfet_01v8_lvt_60_0 sky130_asc_cap_mim_m3_1_4/Cout VDD vbg VSS VDD VSS
+ sky130_asc_pfet_01v8_lvt_60
Xsky130_asc_pfet_01v8_lvt_60_1 sky130_asc_cap_mim_m3_1_4/Cout VDD vb VSS VDD VSS sky130_asc_pfet_01v8_lvt_60
Xsky130_asc_pfet_01v8_lvt_60_2 sky130_asc_cap_mim_m3_1_4/Cout VDD va VSS VDD VSS sky130_asc_pfet_01v8_lvt_60
Xsky130_asc_res_xhigh_po_2p85_1_30 va sky130_asc_res_xhigh_po_2p85_1_29/Rin VDD VSS
+ sky130_asc_res_xhigh_po_2p85_1_30/a_2148_115# sky130_asc_res_xhigh_po_2p85_1
Xsky130_asc_res_xhigh_po_2p85_1_20 vb sky130_asc_res_xhigh_po_2p85_1_19/Rin VDD VSS
+ sky130_asc_res_xhigh_po_2p85_1_20/a_2148_115# sky130_asc_res_xhigh_po_2p85_1
Xsky130_asc_pnp_05v5_W3p40L3p40_7_0 sky130_asc_res_xhigh_po_2p85_1_19/Rout VSS VSS
+ VDD VSS sky130_asc_pnp_05v5_W3p40L3p40_7
Xsky130_asc_res_xhigh_po_2p85_1_10 sky130_asc_res_xhigh_po_2p85_1_10/Rin sky130_asc_res_xhigh_po_2p85_1_9/Rin
+ VDD VSS sky130_asc_res_xhigh_po_2p85_1_10/a_2148_115# sky130_asc_res_xhigh_po_2p85_1
Xsky130_asc_res_xhigh_po_2p85_1_21 sky130_asc_res_xhigh_po_2p85_1_21/Rin sky130_asc_res_xhigh_po_2p85_2_1/Rin
+ VDD VSS sky130_asc_res_xhigh_po_2p85_1_21/a_2148_115# sky130_asc_res_xhigh_po_2p85_1
Xsky130_asc_res_xhigh_po_2p85_2_0 sky130_asc_res_xhigh_po_2p85_2_0/Rin VSS VDD sky130_asc_res_xhigh_po_2p85_2_0/a_2723_115#
+ VSS sky130_asc_res_xhigh_po_2p85_2
Xsky130_asc_res_xhigh_po_2p85_1_11 sky130_asc_res_xhigh_po_2p85_1_11/Rin sky130_asc_res_xhigh_po_2p85_1_10/Rin
+ VDD VSS sky130_asc_res_xhigh_po_2p85_1_11/a_2148_115# sky130_asc_res_xhigh_po_2p85_1
Xsky130_asc_res_xhigh_po_2p85_1_22 sky130_asc_res_xhigh_po_2p85_1_22/Rin sky130_asc_res_xhigh_po_2p85_1_21/Rin
+ VDD VSS sky130_asc_res_xhigh_po_2p85_1_22/a_2148_115# sky130_asc_res_xhigh_po_2p85_1
Xsky130_asc_res_xhigh_po_2p85_2_1 sky130_asc_res_xhigh_po_2p85_2_1/Rin VSS VDD sky130_asc_res_xhigh_po_2p85_2_1/a_2723_115#
+ VSS sky130_asc_res_xhigh_po_2p85_2
Xsky130_asc_res_xhigh_po_2p85_1_12 sky130_asc_res_xhigh_po_2p85_1_12/Rin sky130_asc_res_xhigh_po_2p85_1_11/Rin
+ VDD VSS sky130_asc_res_xhigh_po_2p85_1_12/a_2148_115# sky130_asc_res_xhigh_po_2p85_1
Xsky130_asc_res_xhigh_po_2p85_1_23 sky130_asc_res_xhigh_po_2p85_1_23/Rin sky130_asc_res_xhigh_po_2p85_1_22/Rin
+ VDD VSS sky130_asc_res_xhigh_po_2p85_1_23/a_2148_115# sky130_asc_res_xhigh_po_2p85_1
Xsky130_asc_res_xhigh_po_2p85_1_13 sky130_asc_res_xhigh_po_2p85_1_13/Rin sky130_asc_res_xhigh_po_2p85_1_12/Rin
+ VDD VSS sky130_asc_res_xhigh_po_2p85_1_13/a_2148_115# sky130_asc_res_xhigh_po_2p85_1
Xsky130_asc_res_xhigh_po_2p85_1_24 sky130_asc_res_xhigh_po_2p85_1_24/Rin sky130_asc_res_xhigh_po_2p85_1_23/Rin
+ VDD VSS sky130_asc_res_xhigh_po_2p85_1_24/a_2148_115# sky130_asc_res_xhigh_po_2p85_1
Xsky130_asc_pfet_01v8_lvt_12_0 VDD VDD va VSS VDD VSS sky130_asc_pfet_01v8_lvt_12
Xsky130_asc_res_xhigh_po_2p85_1_14 sky130_asc_res_xhigh_po_2p85_1_14/Rin sky130_asc_res_xhigh_po_2p85_1_13/Rin
+ VDD VSS sky130_asc_res_xhigh_po_2p85_1_14/a_2148_115# sky130_asc_res_xhigh_po_2p85_1
Xsky130_asc_res_xhigh_po_2p85_1_25 sky130_asc_res_xhigh_po_2p85_1_25/Rin sky130_asc_res_xhigh_po_2p85_1_24/Rin
+ VDD VSS sky130_asc_res_xhigh_po_2p85_1_25/a_2148_115# sky130_asc_res_xhigh_po_2p85_1
Xsky130_asc_pfet_01v8_lvt_12_1 sky130_asc_cap_mim_m3_1_4/Cout VDD sky130_asc_nfet_01v8_lvt_1_1/GATE
+ VSS VDD VSS sky130_asc_pfet_01v8_lvt_12
Xsky130_asc_res_xhigh_po_2p85_1_15 sky130_asc_res_xhigh_po_2p85_1_15/Rin sky130_asc_res_xhigh_po_2p85_1_14/Rin
+ VDD VSS sky130_asc_res_xhigh_po_2p85_1_15/a_2148_115# sky130_asc_res_xhigh_po_2p85_1
Xsky130_asc_res_xhigh_po_2p85_1_26 sky130_asc_res_xhigh_po_2p85_1_26/Rin sky130_asc_res_xhigh_po_2p85_1_25/Rin
+ VDD VSS sky130_asc_res_xhigh_po_2p85_1_26/a_2148_115# sky130_asc_res_xhigh_po_2p85_1
Xsky130_asc_res_xhigh_po_2p85_1_16 sky130_asc_res_xhigh_po_2p85_1_18/Rin sky130_asc_res_xhigh_po_2p85_1_15/Rin
+ VDD VSS sky130_asc_res_xhigh_po_2p85_1_16/a_2148_115# sky130_asc_res_xhigh_po_2p85_1
Xsky130_asc_res_xhigh_po_2p85_1_27 sky130_asc_res_xhigh_po_2p85_1_27/Rin sky130_asc_res_xhigh_po_2p85_1_26/Rin
+ VDD VSS sky130_asc_res_xhigh_po_2p85_1_27/a_2148_115# sky130_asc_res_xhigh_po_2p85_1
Xsky130_asc_res_xhigh_po_2p85_1_17 sky130_asc_res_xhigh_po_2p85_1_17/Rin vb VDD VSS
+ sky130_asc_res_xhigh_po_2p85_1_17/a_2148_115# sky130_asc_res_xhigh_po_2p85_1
Xsky130_asc_res_xhigh_po_2p85_1_28 sky130_asc_res_xhigh_po_2p85_1_28/Rin sky130_asc_res_xhigh_po_2p85_1_27/Rin
+ VDD VSS sky130_asc_res_xhigh_po_2p85_1_28/a_2148_115# sky130_asc_res_xhigh_po_2p85_1
Xsky130_asc_nfet_01v8_lvt_9_0 porst VSS sky130_asc_cap_mim_m3_1_4/Cout VDD VSS sky130_asc_nfet_01v8_lvt_9
Xsky130_asc_res_xhigh_po_2p85_1_18 sky130_asc_res_xhigh_po_2p85_1_18/Rin sky130_asc_res_xhigh_po_2p85_1_17/Rin
+ VDD VSS sky130_asc_res_xhigh_po_2p85_1_18/a_2148_115# sky130_asc_res_xhigh_po_2p85_1
Xsky130_asc_res_xhigh_po_2p85_1_29 sky130_asc_res_xhigh_po_2p85_1_29/Rin sky130_asc_res_xhigh_po_2p85_1_28/Rin
+ VDD VSS sky130_asc_res_xhigh_po_2p85_1_29/a_2148_115# sky130_asc_res_xhigh_po_2p85_1
Xsky130_asc_pfet_01v8_lvt_6_0 sky130_asc_pfet_01v8_lvt_6_1/GATE VDD sky130_asc_cap_mim_m3_1_4/Cout
+ VSS VDD VSS sky130_asc_pfet_01v8_lvt_6
Xsky130_asc_nfet_01v8_lvt_9_1 va sky130_asc_nfet_01v8_lvt_1_1/DRAIN sky130_asc_cap_mim_m3_1_4/Cout
+ VDD VSS sky130_asc_nfet_01v8_lvt_9
Xsky130_asc_res_xhigh_po_2p85_1_19 sky130_asc_res_xhigh_po_2p85_1_19/Rin sky130_asc_res_xhigh_po_2p85_1_19/Rout
+ VDD VSS sky130_asc_res_xhigh_po_2p85_1_19/a_2148_115# sky130_asc_res_xhigh_po_2p85_1
Xsky130_asc_pfet_01v8_lvt_6_1 sky130_asc_pfet_01v8_lvt_6_1/GATE VDD sky130_asc_pfet_01v8_lvt_6_1/GATE
+ VSS VDD VSS sky130_asc_pfet_01v8_lvt_6
Xsky130_asc_pnp_05v5_W3p40L3p40_1_0 va VSS VSS VDD VSS sky130_asc_pnp_05v5_W3p40L3p40_1
Xsky130_asc_nfet_01v8_lvt_9_2 vb sky130_asc_nfet_01v8_lvt_1_1/DRAIN sky130_asc_pfet_01v8_lvt_6_1/GATE
+ VDD VSS sky130_asc_nfet_01v8_lvt_9
Xsky130_asc_cap_mim_m3_1_0 VDD sky130_asc_cap_mim_m3_1_4/Cout VDD VSS VSS sky130_asc_cap_mim_m3_1
Xsky130_asc_cap_mim_m3_1_1 VDD sky130_asc_cap_mim_m3_1_4/Cout VDD VSS VSS sky130_asc_cap_mim_m3_1
Xsky130_asc_pnp_05v5_W3p40L3p40_8_0 sky130_asc_res_xhigh_po_2p85_1_19/Rout VSS VSS
+ VDD VSS sky130_asc_pnp_05v5_W3p40L3p40_8
Xsky130_asc_cap_mim_m3_1_2 VDD sky130_asc_cap_mim_m3_1_4/Cout VDD VSS VSS sky130_asc_cap_mim_m3_1
Xsky130_asc_pnp_05v5_W3p40L3p40_8_1 sky130_asc_res_xhigh_po_2p85_1_19/Rout VSS VSS
+ VDD VSS sky130_asc_pnp_05v5_W3p40L3p40_8
Xsky130_asc_cap_mim_m3_1_3 VDD sky130_asc_cap_mim_m3_1_4/Cout VDD VSS VSS sky130_asc_cap_mim_m3_1
Xsky130_asc_pnp_05v5_W3p40L3p40_8_2 sky130_asc_res_xhigh_po_2p85_1_19/Rout VSS VSS
+ VDD VSS sky130_asc_pnp_05v5_W3p40L3p40_8
Xsky130_asc_cap_mim_m3_1_4 VDD sky130_asc_cap_mim_m3_1_4/Cout VDD VSS VSS sky130_asc_cap_mim_m3_1
Xsky130_asc_pnp_05v5_W3p40L3p40_8_3 sky130_asc_res_xhigh_po_2p85_1_19/Rout VSS VSS
+ VDD VSS sky130_asc_pnp_05v5_W3p40L3p40_8
Xsky130_asc_cap_mim_m3_1_5 va VSS VDD VSS VSS sky130_asc_cap_mim_m3_1
Xsky130_asc_res_xhigh_po_2p85_1_0 sky130_asc_res_xhigh_po_2p85_1_0/Rin VSS VDD VSS
+ sky130_asc_res_xhigh_po_2p85_1_0/a_2148_115# sky130_asc_res_xhigh_po_2p85_1
Xsky130_asc_cap_mim_m3_1_6 va VSS VDD VSS VSS sky130_asc_cap_mim_m3_1
Xsky130_asc_nfet_01v8_lvt_1_0 sky130_asc_nfet_01v8_lvt_1_1/GATE VSS sky130_asc_nfet_01v8_lvt_1_1/GATE
+ VDD VSS sky130_asc_nfet_01v8_lvt_1
Xsky130_asc_res_xhigh_po_2p85_1_1 sky130_asc_res_xhigh_po_2p85_1_1/Rin sky130_asc_res_xhigh_po_2p85_1_0/Rin
+ VDD VSS sky130_asc_res_xhigh_po_2p85_1_1/a_2148_115# sky130_asc_res_xhigh_po_2p85_1
Xsky130_asc_cap_mim_m3_1_7 va VSS VDD VSS VSS sky130_asc_cap_mim_m3_1
Xsky130_asc_nfet_01v8_lvt_1_1 sky130_asc_nfet_01v8_lvt_1_1/GATE VSS sky130_asc_nfet_01v8_lvt_1_1/DRAIN
+ VDD VSS sky130_asc_nfet_01v8_lvt_1
Xsky130_asc_res_xhigh_po_2p85_1_2 sky130_asc_res_xhigh_po_2p85_1_2/Rin sky130_asc_res_xhigh_po_2p85_1_1/Rin
+ VDD VSS sky130_asc_res_xhigh_po_2p85_1_2/a_2148_115# sky130_asc_res_xhigh_po_2p85_1
Xsky130_asc_cap_mim_m3_1_8 va VSS VDD VSS VSS sky130_asc_cap_mim_m3_1
Xsky130_asc_res_xhigh_po_2p85_1_3 sky130_asc_res_xhigh_po_2p85_1_3/Rin sky130_asc_res_xhigh_po_2p85_1_2/Rin
+ VDD VSS sky130_asc_res_xhigh_po_2p85_1_3/a_2148_115# sky130_asc_res_xhigh_po_2p85_1
Xsky130_asc_cap_mim_m3_1_9 va VSS VDD VSS VSS sky130_asc_cap_mim_m3_1
Xsky130_asc_res_xhigh_po_2p85_1_4 sky130_asc_res_xhigh_po_2p85_1_4/Rin sky130_asc_res_xhigh_po_2p85_1_3/Rin
+ VDD VSS sky130_asc_res_xhigh_po_2p85_1_4/a_2148_115# sky130_asc_res_xhigh_po_2p85_1
Xsky130_asc_res_xhigh_po_2p85_1_5 sky130_asc_res_xhigh_po_2p85_1_5/Rin sky130_asc_res_xhigh_po_2p85_1_4/Rin
+ VDD VSS sky130_asc_res_xhigh_po_2p85_1_5/a_2148_115# sky130_asc_res_xhigh_po_2p85_1
Xsky130_asc_res_xhigh_po_2p85_1_6 sky130_asc_res_xhigh_po_2p85_1_6/Rin sky130_asc_res_xhigh_po_2p85_1_5/Rin
+ VDD VSS sky130_asc_res_xhigh_po_2p85_1_6/a_2148_115# sky130_asc_res_xhigh_po_2p85_1
C0 vb sky130_asc_res_xhigh_po_2p85_1_23/Rin 0.96fF
C1 sky130_asc_res_xhigh_po_2p85_1_10/Rin sky130_asc_res_xhigh_po_2p85_1_9/a_2148_115# 0.20fF
C2 sky130_asc_res_xhigh_po_2p85_1_25/Rin sky130_asc_res_xhigh_po_2p85_1_26/a_2148_115# 0.02fF
C3 sky130_asc_res_xhigh_po_2p85_1_12/Rin sky130_asc_res_xhigh_po_2p85_1_13/Rin 0.20fF
C4 sky130_asc_res_xhigh_po_2p85_1_25/Rin sky130_asc_res_xhigh_po_2p85_1_24/Rin 0.08fF
C5 sky130_asc_res_xhigh_po_2p85_2_1/Rin sky130_asc_nfet_01v8_lvt_1_1/GATE 0.04fF
C6 sky130_asc_res_xhigh_po_2p85_2_1/Rin sky130_asc_cap_mim_m3_1_4/Cout 1.95fF
C7 sky130_asc_res_xhigh_po_2p85_1_26/Rin sky130_asc_res_xhigh_po_2p85_2_0/Rin 0.03fF
C8 sky130_asc_res_xhigh_po_2p85_1_2/a_2148_115# sky130_asc_res_xhigh_po_2p85_1_1/Rin 0.29fF
C9 VDD sky130_asc_res_xhigh_po_2p85_2_0/Rin 1.64fF
C10 sky130_asc_res_xhigh_po_2p85_1_29/Rin sky130_asc_nfet_01v8_lvt_1_1/DRAIN 0.04fF
C11 sky130_asc_res_xhigh_po_2p85_1_1/Rin sky130_asc_res_xhigh_po_2p85_1_2/Rin 0.00fF
C12 sky130_asc_res_xhigh_po_2p85_1_17/Rin sky130_asc_res_xhigh_po_2p85_1_10/Rin 0.03fF
C13 sky130_asc_res_xhigh_po_2p85_2_0/a_2723_115# sky130_asc_res_xhigh_po_2p85_1_28/Rin 0.19fF
C14 sky130_asc_res_xhigh_po_2p85_2_0/a_2723_115# sky130_asc_res_xhigh_po_2p85_1_27/Rin 0.20fF
C15 vb sky130_asc_nfet_01v8_lvt_1_1/DRAIN 0.63fF
C16 sky130_asc_res_xhigh_po_2p85_1_0/a_2148_115# sky130_asc_res_xhigh_po_2p85_1_0/Rin 0.77fF
C17 sky130_asc_res_xhigh_po_2p85_1_29/Rin sky130_asc_cap_mim_m3_1_4/Cout 1.05fF
C18 vb sky130_asc_nfet_01v8_lvt_1_1/GATE 0.08fF
C19 va sky130_asc_res_xhigh_po_2p85_1_28/Rin 1.22fF
C20 VDD sky130_asc_res_xhigh_po_2p85_1_24/Rin 0.31fF
C21 vb sky130_asc_cap_mim_m3_1_4/Cout 2.18fF
C22 sky130_asc_res_xhigh_po_2p85_1_22/Rin sky130_asc_res_xhigh_po_2p85_1_24/Rin 0.45fF
C23 VDD sky130_asc_res_xhigh_po_2p85_1_17/Rin 0.11fF
C24 sky130_asc_res_xhigh_po_2p85_1_19/Rin sky130_asc_res_xhigh_po_2p85_1_9/Rin 0.03fF
C25 sky130_asc_res_xhigh_po_2p85_2_1/Rin sky130_asc_res_xhigh_po_2p85_1_29/Rin 0.03fF
C26 sky130_asc_res_xhigh_po_2p85_1_7/Rin sky130_asc_res_xhigh_po_2p85_1_6/Rin 0.03fF
C27 sky130_asc_res_xhigh_po_2p85_1_11/Rin sky130_asc_res_xhigh_po_2p85_1_19/a_2148_115# 0.29fF
C28 VDD sky130_asc_res_xhigh_po_2p85_1_21/Rin 0.35fF
C29 sky130_asc_res_xhigh_po_2p85_1_22/Rin sky130_asc_res_xhigh_po_2p85_1_21/Rin 0.45fF
C30 vb sky130_asc_res_xhigh_po_2p85_1_11/a_2148_115# 0.22fF
C31 sky130_asc_res_xhigh_po_2p85_1_5/Rin sky130_asc_res_xhigh_po_2p85_1_5/a_2148_115# 0.31fF
C32 VDD sky130_asc_res_xhigh_po_2p85_1_5/Rin 2.55fF
C33 va sky130_asc_pfet_01v8_lvt_6_1/GATE 0.08fF
C34 sky130_asc_res_xhigh_po_2p85_1_24/Rin sky130_asc_res_xhigh_po_2p85_1_23/Rin 0.49fF
C35 sky130_asc_res_xhigh_po_2p85_2_1/Rin vb 0.04fF
C36 vb sky130_asc_res_xhigh_po_2p85_1_27/a_2148_115# 1.19fF
C37 sky130_asc_res_xhigh_po_2p85_1_12/Rin sky130_asc_res_xhigh_po_2p85_1_12/a_2148_115# 0.46fF
C38 sky130_asc_res_xhigh_po_2p85_1_11/Rin sky130_asc_res_xhigh_po_2p85_1_13/Rin 0.05fF
C39 VDD sky130_asc_res_xhigh_po_2p85_1_12/Rin 0.90fF
C40 sky130_asc_res_xhigh_po_2p85_1_10/Rin sky130_asc_res_xhigh_po_2p85_1_18/Rin 1.37fF
C41 sky130_asc_res_xhigh_po_2p85_2_0/Rin sky130_asc_cap_mim_m3_1_4/Cout 0.34fF
C42 sky130_asc_res_xhigh_po_2p85_1_3/a_2148_115# sky130_asc_res_xhigh_po_2p85_1_1/Rin 0.20fF
C43 sky130_asc_res_xhigh_po_2p85_1_19/Rout sky130_asc_res_xhigh_po_2p85_1_9/Rin 0.03fF
C44 vb sky130_asc_res_xhigh_po_2p85_1_19/Rout 0.55fF
C45 sky130_asc_res_xhigh_po_2p85_1_4/a_2148_115# sky130_asc_res_xhigh_po_2p85_1_4/Rin 0.61fF
C46 sky130_asc_res_xhigh_po_2p85_1_18/Rin sky130_asc_res_xhigh_po_2p85_1_10/a_2148_115# 0.05fF
C47 sky130_asc_res_xhigh_po_2p85_1_5/Rin vbg 0.31fF
C48 vb sky130_asc_res_xhigh_po_2p85_1_29/Rin 0.04fF
C49 va sky130_asc_res_xhigh_po_2p85_1_26/Rin 0.07fF
C50 sky130_asc_res_xhigh_po_2p85_1_15/a_2148_115# sky130_asc_res_xhigh_po_2p85_1_13/Rin 0.20fF
C51 VDD sky130_asc_res_xhigh_po_2p85_1_18/Rin 5.98fF
C52 va VDD 3.77fF
C53 sky130_asc_res_xhigh_po_2p85_1_30/a_2148_115# sky130_asc_pfet_01v8_lvt_6_1/GATE 0.19fF
C54 sky130_asc_res_xhigh_po_2p85_1_27/Rin sky130_asc_res_xhigh_po_2p85_1_28/Rin 0.45fF
C55 VDD sky130_asc_res_xhigh_po_2p85_1_0/Rin 0.62fF
C56 sky130_asc_nfet_01v8_lvt_1_1/GATE sky130_asc_res_xhigh_po_2p85_1_21/Rin 0.19fF
C57 sky130_asc_res_xhigh_po_2p85_1_19/Rout sky130_asc_res_xhigh_po_2p85_2_0/Rin 3.52fF
C58 sky130_asc_res_xhigh_po_2p85_1_10/Rin sky130_asc_res_xhigh_po_2p85_1_11/Rin 0.57fF
C59 sky130_asc_res_xhigh_po_2p85_1_21/Rin sky130_asc_cap_mim_m3_1_4/Cout 2.48fF
C60 sky130_asc_res_xhigh_po_2p85_1_28/Rin sky130_asc_pfet_01v8_lvt_6_1/GATE 0.03fF
C61 sky130_asc_res_xhigh_po_2p85_1_17/Rin sky130_asc_res_xhigh_po_2p85_1_11/a_2148_115# 0.20fF
C62 sky130_asc_res_xhigh_po_2p85_1_16/a_2148_115# sky130_asc_res_xhigh_po_2p85_1_24/Rin 0.20fF
C63 sky130_asc_res_xhigh_po_2p85_1_1/Rin sky130_asc_res_xhigh_po_2p85_1_6/Rin 0.23fF
C64 sky130_asc_res_xhigh_po_2p85_1_7/Rin sky130_asc_res_xhigh_po_2p85_1_1/Rin 0.05fF
C65 sky130_asc_res_xhigh_po_2p85_2_1/Rin sky130_asc_res_xhigh_po_2p85_1_21/Rin 0.45fF
C66 sky130_asc_res_xhigh_po_2p85_1_9/Rin sky130_asc_res_xhigh_po_2p85_2_0/Rin 0.29fF
C67 vb sky130_asc_res_xhigh_po_2p85_1_21/a_2148_115# 1.19fF
C68 vb sky130_asc_res_xhigh_po_2p85_2_0/Rin 0.07fF
C69 sky130_asc_res_xhigh_po_2p85_1_12/a_2148_115# sky130_asc_res_xhigh_po_2p85_1_11/Rin -0.08fF
C70 sky130_asc_res_xhigh_po_2p85_1_15/Rin sky130_asc_res_xhigh_po_2p85_1_18/Rin 0.45fF
C71 va sky130_asc_nfet_01v8_lvt_1_1/DRAIN 0.34fF
C72 sky130_asc_res_xhigh_po_2p85_1_12/a_2148_115# sky130_asc_res_xhigh_po_2p85_1_13/Rin 1.05fF
C73 sky130_asc_res_xhigh_po_2p85_1_5/Rin sky130_asc_res_xhigh_po_2p85_1_6/Rin 0.78fF
C74 sky130_asc_res_xhigh_po_2p85_1_17/Rin sky130_asc_res_xhigh_po_2p85_1_19/Rout 0.03fF
C75 sky130_asc_res_xhigh_po_2p85_1_7/Rin sky130_asc_res_xhigh_po_2p85_1_5/Rin 0.03fF
C76 VDD sky130_asc_res_xhigh_po_2p85_1_13/Rin 0.11fF
C77 vb sky130_asc_res_xhigh_po_2p85_1_18/a_2148_115# 0.28fF
C78 va sky130_asc_nfet_01v8_lvt_1_1/GATE 1.89fF
C79 sky130_asc_res_xhigh_po_2p85_1_26/Rin sky130_asc_res_xhigh_po_2p85_1_28/Rin 2.81fF
C80 va sky130_asc_cap_mim_m3_1_4/Cout 2.27fF
C81 VDD sky130_asc_res_xhigh_po_2p85_1_28/Rin 0.58fF
C82 sky130_asc_res_xhigh_po_2p85_1_7/Rin sky130_asc_res_xhigh_po_2p85_1_7/a_2148_115# 0.50fF
C83 vb sky130_asc_res_xhigh_po_2p85_1_24/Rin 0.03fF
C84 sky130_asc_res_xhigh_po_2p85_1_17/Rin sky130_asc_res_xhigh_po_2p85_1_9/Rin 0.73fF
C85 sky130_asc_res_xhigh_po_2p85_1_17/Rin vb 0.25fF